<?xml version="1.0" encoding="UTF-8"?>

<!-- generated on Mon Aug 31 16:53:01 2020 by Eclipse SUMO netedit Version 1.6.0
<configuration xmlns:xsi="http://www.w3.org/2001/XMLSchema-instance" xsi:noNamespaceSchemaLocation="http://sumo.dlr.de/xsd/netconvertConfiguration.xsd">

    <input>
        <sumo-net-file value="/Users/thiveshanpillay/Documents/2020/COS%20301/Capstone/GitHub_Lightbot/LightBot/lightbot_sim/scenarios/Jan_Shoba_Multi_Peak/sim.net.xml"/>
    </input>

    <output>
        <output-file value="/Users/thiveshanpillay/Documents/2020/COS%20301/Capstone/GitHub_Lightbot/LightBot/lightbot_sim/scenarios/Jan_Shoba_Multi_Peak/sim.net.xml"/>
        <output.street-names value="true"/>
    </output>

    <processing>
        <geometry.min-radius.fix.railways value="false"/>
        <geometry.max-grade.fix value="false"/>
        <offset.disable-normalization value="true"/>
        <lefthand value="true"/>
    </processing>

    <junctions>
        <no-turnarounds value="true"/>
        <junctions.corner-detail value="5"/>
        <junctions.limit-turn-speed value="5.5"/>
        <rectangular-lane-cut value="false"/>
    </junctions>

    <pedestrian>
        <walkingareas value="false"/>
    </pedestrian>

    <report>
        <aggregate-warnings value="5"/>
    </report>

</configuration>
-->

<net version="1.6" junctionCornerDetail="5" lefthand="true" limitTurnSpeed="5.50" xmlns:xsi="http://www.w3.org/2001/XMLSchema-instance" xsi:noNamespaceSchemaLocation="http://sumo.dlr.de/xsd/net_file.xsd">

    <location netOffset="-623905.01,2849515.85" convBoundary="31.09,0.00,777.60,821.59" origBoundary="28.235474,-25.760747,28.250874,-25.745772" projParameter="+proj=utm +zone=35 +ellps=WGS84 +datum=WGS84 +units=m +no_defs"/>

    <type id="highway.bridleway" priority="1" numLanes="1" speed="2.78" allow="pedestrian" oneway="1" width="2.00"/>
    <type id="highway.bus_guideway" priority="1" numLanes="1" speed="27.78" allow="bus" oneway="1"/>
    <type id="highway.cycleway" priority="1" numLanes="1" speed="8.33" allow="bicycle" oneway="0" width="1.00"/>
    <type id="highway.footway" priority="1" numLanes="1" speed="2.78" allow="pedestrian" oneway="1" width="2.00"/>
    <type id="highway.ford" priority="1" numLanes="1" speed="2.78" allow="army" oneway="0"/>
    <type id="highway.living_street" priority="2" numLanes="1" speed="2.78" disallow="tram rail_urban rail rail_electric rail_fast ship" oneway="0"/>
    <type id="highway.motorway" priority="14" numLanes="2" speed="39.44" allow="private emergency authority army vip passenger hov taxi bus coach delivery truck trailer motorcycle evehicle custom1 custom2" oneway="1"/>
    <type id="highway.motorway_link" priority="9" numLanes="1" speed="22.22" allow="private emergency authority army vip passenger hov taxi bus coach delivery truck trailer motorcycle evehicle custom1 custom2" oneway="1"/>
    <type id="highway.path" priority="1" numLanes="1" speed="2.78" allow="pedestrian bicycle" oneway="1" width="2.00"/>
    <type id="highway.pedestrian" priority="1" numLanes="1" speed="2.78" allow="pedestrian" oneway="1" width="2.00"/>
    <type id="highway.primary" priority="12" numLanes="2" speed="27.78" disallow="tram rail_urban rail rail_electric rail_fast ship" oneway="0"/>
    <type id="highway.primary_link" priority="7" numLanes="1" speed="22.22" disallow="tram rail_urban rail rail_electric rail_fast ship" oneway="0"/>
    <type id="highway.raceway" priority="15" numLanes="2" speed="83.33" allow="vip" oneway="0"/>
    <type id="highway.residential" priority="3" numLanes="1" speed="13.89" disallow="tram rail_urban rail rail_electric rail_fast ship" oneway="0"/>
    <type id="highway.secondary" priority="11" numLanes="1" speed="27.78" disallow="tram rail_urban rail rail_electric rail_fast ship" oneway="0"/>
    <type id="highway.secondary_link" priority="6" numLanes="1" speed="22.22" disallow="tram rail_urban rail rail_electric rail_fast ship" oneway="0"/>
    <type id="highway.service" priority="1" numLanes="1" speed="5.56" allow="pedestrian delivery bicycle" oneway="0"/>
    <type id="highway.stairs" priority="1" numLanes="1" speed="1.39" allow="pedestrian" oneway="1" width="2.00"/>
    <type id="highway.step" priority="1" numLanes="1" speed="1.39" allow="pedestrian" oneway="1" width="2.00"/>
    <type id="highway.steps" priority="1" numLanes="1" speed="1.39" allow="pedestrian" oneway="1" width="2.00"/>
    <type id="highway.tertiary" priority="10" numLanes="1" speed="22.22" disallow="tram rail_urban rail rail_electric rail_fast ship" oneway="0"/>
    <type id="highway.tertiary_link" priority="5" numLanes="1" speed="22.22" disallow="tram rail_urban rail rail_electric rail_fast ship" oneway="0"/>
    <type id="highway.track" priority="1" numLanes="1" speed="5.56" disallow="tram rail_urban rail rail_electric rail_fast ship" oneway="0"/>
    <type id="highway.trunk" priority="13" numLanes="2" speed="27.78" disallow="pedestrian bicycle tram rail_urban rail rail_electric rail_fast ship" oneway="0"/>
    <type id="highway.trunk_link" priority="8" numLanes="1" speed="22.22" disallow="pedestrian bicycle tram rail_urban rail rail_electric rail_fast ship" oneway="0"/>
    <type id="highway.unclassified" priority="4" numLanes="1" speed="13.89" disallow="tram rail_urban rail rail_electric rail_fast ship" oneway="0"/>
    <type id="highway.unsurfaced" priority="1" numLanes="1" speed="8.33" disallow="tram rail_urban rail rail_electric rail_fast ship" oneway="0"/>
    <type id="railway.highspeed" priority="21" numLanes="1" speed="69.44" allow="rail_fast" oneway="1"/>
    <type id="railway.light_rail" priority="19" numLanes="1" speed="27.78" allow="rail_urban" oneway="1"/>
    <type id="railway.preserved" priority="16" numLanes="1" speed="27.78" allow="rail" oneway="1"/>
    <type id="railway.rail" priority="20" numLanes="1" speed="44.44" allow="rail" oneway="1"/>
    <type id="railway.subway" priority="18" numLanes="1" speed="27.78" allow="rail_urban" oneway="1"/>
    <type id="railway.tram" priority="17" numLanes="1" speed="13.89" allow="tram" oneway="1"/>

    <edge id=":junc_Duxbury_w_0" function="internal">
        <lane id=":junc_Duxbury_w_0_0" index="0" disallow="tram rail_urban rail rail_electric rail_fast ship" speed="3.65" length="4.67" shape="275.12,328.22 274.21,329.35 274.07,330.23 274.70,330.88 276.08,331.28"/>
    </edge>
    <edge id=":junc_JanShoba_Duxbury_0" function="internal">
        <lane id=":junc_JanShoba_Duxbury_0_0" index="0" disallow="tram rail_urban rail rail_electric rail_fast ship" speed="7.66" length="12.56" shape="408.64,280.29 404.45,281.04 401.22,280.81 398.97,279.62 397.68,277.45"/>
    </edge>
    <edge id=":junc_JanShoba_Duxbury_1" function="internal">
        <lane id=":junc_JanShoba_Duxbury_1_0" index="0" disallow="tram rail_urban rail rail_electric rail_fast ship" speed="20.84" length="33.05" shape="409.46,283.38 378.13,293.90"/>
    </edge>
    <edge id=":junc_JanShoba_Duxbury_2" function="internal">
        <lane id=":junc_JanShoba_Duxbury_2_0" index="0" disallow="tram rail_urban rail rail_electric rail_fast ship" speed="10.34" length="26.73" shape="411.09,289.57 402.92,292.22 397.23,295.60 394.56,300.15 395.46,306.33"/>
    </edge>
    <edge id=":junc_JanShoba_Duxbury_3" function="internal">
        <lane id=":junc_JanShoba_Duxbury_3_0" index="0" disallow="tram rail_urban rail rail_electric rail_fast ship" speed="6.29" length="9.06" shape="408.78,300.99 408.22,298.52 408.62,296.55 409.97,295.07 412.29,294.09"/>
    </edge>
    <edge id=":junc_JanShoba_Duxbury_4" function="internal">
        <lane id=":junc_JanShoba_Duxbury_4_0" index="0" disallow="tram rail_urban rail rail_electric rail_fast ship" speed="20.84" length="26.16" shape="408.78,300.99 397.68,277.45"/>
        <lane id=":junc_JanShoba_Duxbury_4_1" index="1" disallow="tram rail_urban rail rail_electric rail_fast ship" speed="20.84" length="26.16" shape="405.81,302.18 394.62,278.38"/>
    </edge>
    <edge id=":junc_JanShoba_Duxbury_6" function="internal">
        <lane id=":junc_JanShoba_Duxbury_6_0" index="0" disallow="tram rail_urban rail rail_electric rail_fast ship" speed="11.61" length="29.78" shape="402.84,303.37 399.06,296.95 393.68,293.23 386.70,292.22 378.13,293.90"/>
    </edge>
    <edge id=":junc_JanShoba_Duxbury_7" function="internal">
        <lane id=":junc_JanShoba_Duxbury_7_0" index="0" disallow="tram rail_urban rail rail_electric rail_fast ship" speed="8.06" length="12.94" shape="381.36,303.81 385.34,303.21 388.52,303.63 390.90,305.07 392.49,307.52"/>
    </edge>
    <edge id=":junc_JanShoba_Duxbury_8" function="internal">
        <lane id=":junc_JanShoba_Duxbury_8_0" index="0" disallow="tram rail_urban rail rail_electric rail_fast ship" speed="20.84" length="32.43" shape="381.36,303.81 412.29,294.09"/>
    </edge>
    <edge id=":junc_JanShoba_Duxbury_9" function="internal">
        <lane id=":junc_JanShoba_Duxbury_9_0" index="0" disallow="tram rail_urban rail rail_electric rail_fast ship" speed="11.33" length="18.60" shape="380.36,300.76 388.58,297.51 393.70,292.69 394.52,290.09"/>
    </edge>
    <edge id=":junc_JanShoba_Duxbury_14" function="internal">
        <lane id=":junc_JanShoba_Duxbury_14_0" index="0" disallow="tram rail_urban rail rail_electric rail_fast ship" speed="11.33" length="11.96" shape="394.52,290.09 395.71,286.32 394.62,278.38"/>
    </edge>
    <edge id=":junc_JanShoba_Duxbury_10" function="internal">
        <lane id=":junc_JanShoba_Duxbury_10_0" index="0" disallow="tram rail_urban rail rail_electric rail_fast ship" speed="7.72" length="12.79" shape="380.63,282.62 381.50,286.92 381.37,290.24 380.25,292.56 378.13,293.90"/>
    </edge>
    <edge id=":junc_JanShoba_Duxbury_11" function="internal">
        <lane id=":junc_JanShoba_Duxbury_11_0" index="0" disallow="tram rail_urban rail rail_electric rail_fast ship" speed="27.78" length="27.16" shape="383.69,281.69 386.12,289.96 388.09,296.05 390.07,301.41 392.49,307.52"/>
        <lane id=":junc_JanShoba_Duxbury_11_1" index="1" disallow="tram rail_urban rail rail_electric rail_fast ship" speed="27.78" length="27.16" shape="386.75,280.77 389.15,288.93 391.10,294.94 393.05,300.25 395.46,306.33"/>
    </edge>
    <edge id=":junc_JanShoba_Duxbury_13" function="internal">
        <lane id=":junc_JanShoba_Duxbury_13_0" index="0" disallow="tram rail_urban rail rail_electric rail_fast ship" speed="11.54" length="30.20" shape="389.82,279.84 393.23,287.77 398.11,292.79 404.46,294.90 412.29,294.09"/>
    </edge>
    <edge id=":junc_JanShoba_Lunnon_0" function="internal">
        <lane id=":junc_JanShoba_Lunnon_0_0" index="0" disallow="tram rail_urban rail rail_electric rail_fast ship" speed="6.84" length="10.41" shape="362.01,156.11 361.37,152.95 361.69,150.48 362.98,148.70 365.23,147.61"/>
    </edge>
    <edge id=":junc_JanShoba_Lunnon_1" function="internal">
        <lane id=":junc_JanShoba_Lunnon_1_0" index="0" disallow="tram rail_urban rail rail_electric rail_fast ship" speed="27.78" length="14.29" shape="362.01,156.11 357.74,142.48"/>
        <lane id=":junc_JanShoba_Lunnon_1_1" index="1" disallow="tram rail_urban rail rail_electric rail_fast ship" speed="27.78" length="14.29" shape="358.93,156.98 354.65,143.33"/>
    </edge>
    <edge id=":junc_JanShoba_Lunnon_3" function="internal">
        <lane id=":junc_JanShoba_Lunnon_3_0" index="0" disallow="tram rail_urban rail rail_electric rail_fast ship" speed="8.89" length="5.77" shape="355.85,157.85 353.94,154.40 352.41,153.40"/>
    </edge>
    <edge id=":junc_JanShoba_Lunnon_4" function="internal">
        <lane id=":junc_JanShoba_Lunnon_4_0" index="0" disallow="tram rail_urban rail rail_electric rail_fast ship" speed="3.88" length="3.05" shape="355.85,157.85 354.56,156.74 353.52,156.54 353.30,156.74"/>
    </edge>
    <edge id=":junc_JanShoba_Lunnon_14" function="internal">
        <lane id=":junc_JanShoba_Lunnon_14_0" index="0" disallow="tram rail_urban rail rail_electric rail_fast ship" speed="8.89" length="11.44" shape="352.41,153.40 350.89,152.40 346.70,151.86 341.38,152.76"/>
    </edge>
    <edge id=":junc_JanShoba_Lunnon_15" function="internal">
        <lane id=":junc_JanShoba_Lunnon_15_0" index="0" disallow="tram rail_urban rail rail_electric rail_fast ship" speed="3.88" length="2.46" shape="353.30,156.74 352.74,157.25 352.22,158.87"/>
    </edge>
    <edge id=":junc_JanShoba_Lunnon_5" function="internal">
        <lane id=":junc_JanShoba_Lunnon_5_0" index="0" disallow="tram rail_urban rail rail_electric rail_fast ship" speed="6.52" length="9.03" shape="342.23,155.85 344.68,155.53 346.65,156.07 348.14,157.48 349.14,159.74"/>
    </edge>
    <edge id=":junc_JanShoba_Lunnon_6" function="internal">
        <lane id=":junc_JanShoba_Lunnon_6_0" index="0" disallow="tram rail_urban rail rail_electric rail_fast ship" speed="13.89" length="24.43" shape="342.23,155.85 365.23,147.61"/>
    </edge>
    <edge id=":junc_JanShoba_Lunnon_7" function="internal">
        <lane id=":junc_JanShoba_Lunnon_7_0" index="0" disallow="tram rail_urban rail rail_electric rail_fast ship" speed="9.35" length="19.68" shape="342.23,155.85 348.53,153.54 352.70,150.68 354.74,147.28 354.65,143.33"/>
    </edge>
    <edge id=":junc_JanShoba_Lunnon_8" function="internal">
        <lane id=":junc_JanShoba_Lunnon_8_0" index="0" disallow="tram rail_urban rail rail_electric rail_fast ship" speed="3.65" length="4.67" shape="342.23,155.85 343.18,154.76 343.35,153.88 342.75,153.21 341.38,152.76"/>
    </edge>
    <edge id=":junc_JanShoba_Lunnon_9" function="internal">
        <lane id=":junc_JanShoba_Lunnon_9_0" index="0" disallow="tram rail_urban rail rail_electric rail_fast ship" speed="6.51" length="9.17" shape="345.41,145.84 345.75,148.29 345.19,150.26 343.74,151.75 341.38,152.76"/>
    </edge>
    <edge id=":junc_JanShoba_Lunnon_10" function="internal">
        <lane id=":junc_JanShoba_Lunnon_10_0" index="0" disallow="tram rail_urban rail rail_electric rail_fast ship" speed="27.78" length="14.37" shape="345.41,145.84 349.14,159.74"/>
        <lane id=":junc_JanShoba_Lunnon_10_1" index="1" disallow="tram rail_urban rail rail_electric rail_fast ship" speed="27.78" length="14.37" shape="348.50,145.00 352.22,158.87"/>
    </edge>
    <edge id=":junc_JanShoba_Lunnon_12" function="internal">
        <lane id=":junc_JanShoba_Lunnon_12_0" index="0" disallow="tram rail_urban rail rail_electric rail_fast ship" speed="8.44" length="4.38" shape="351.59,144.16 353.18,146.87 354.27,147.45"/>
    </edge>
    <edge id=":junc_JanShoba_Lunnon_13" function="internal">
        <lane id=":junc_JanShoba_Lunnon_13_0" index="0" disallow="tram rail_urban rail rail_electric rail_fast ship" speed="3.65" length="2.32" shape="351.59,144.16 352.67,145.10 353.54,145.28"/>
    </edge>
    <edge id=":junc_JanShoba_Lunnon_16" function="internal">
        <lane id=":junc_JanShoba_Lunnon_16_0" index="0" disallow="tram rail_urban rail rail_electric rail_fast ship" speed="8.44" length="11.29" shape="354.27,147.45 355.98,148.35 360.00,148.60 365.23,147.61"/>
    </edge>
    <edge id=":junc_JanShoba_Lunnon_17" function="internal">
        <lane id=":junc_JanShoba_Lunnon_17_0" index="0" disallow="tram rail_urban rail rail_electric rail_fast ship" speed="3.65" length="2.32" shape="353.54,145.28 354.20,144.68 354.65,143.33"/>
    </edge>
    <edge id=":junc_JanShoba_Propect_e_0" function="internal">
        <lane id=":junc_JanShoba_Propect_e_0_0" index="0" disallow="tram rail_urban rail rail_electric rail_fast ship" speed="6.49" length="9.03" shape="487.96,738.68 485.53,738.17 483.86,737.01 482.93,735.19 482.75,732.72"/>
    </edge>
    <edge id=":junc_JanShoba_Propect_e_1" function="internal">
        <lane id=":junc_JanShoba_Propect_e_1_0" index="0" disallow="tram rail_urban rail rail_electric rail_fast ship" speed="3.65" length="4.67" shape="487.96,738.68 486.71,739.40 486.26,740.17 486.61,740.99 487.75,741.87"/>
    </edge>
    <edge id=":junc_JanShoba_Propect_e_2" function="internal">
        <lane id=":junc_JanShoba_Propect_e_2_0" index="0" disallow="tram rail_urban rail rail_electric rail_fast ship" speed="6.53" length="9.06" shape="481.74,747.09 482.26,744.67 483.44,742.99 485.27,742.06 487.75,741.87"/>
    </edge>
    <edge id=":junc_JanShoba_Propect_e_3" function="internal">
        <lane id=":junc_JanShoba_Propect_e_3_0" index="0" disallow="tram rail_urban rail rail_electric rail_fast ship" speed="27.78" length="14.40" shape="481.74,747.09 482.75,732.72"/>
        <lane id=":junc_JanShoba_Propect_e_3_1" index="1" disallow="tram rail_urban rail rail_electric rail_fast ship" speed="27.78" length="14.40" shape="478.55,746.86 479.56,732.50"/>
    </edge>
    <edge id=":junc_JanShoba_Prospect_w_0" function="internal">
        <lane id=":junc_JanShoba_Prospect_w_0_0" index="0" disallow="tram rail_urban rail rail_electric rail_fast ship" speed="6.54" length="9.09" shape="472.54,731.83 472.01,734.24 470.83,735.92 468.99,736.85 466.50,737.05"/>
    </edge>
    <edge id=":junc_JanShoba_Prospect_w_1" function="internal">
        <lane id=":junc_JanShoba_Prospect_w_1_0" index="0" disallow="tram rail_urban rail rail_electric rail_fast ship" speed="27.78" length="14.43" shape="472.54,731.83 471.46,746.20"/>
        <lane id=":junc_JanShoba_Prospect_w_1_1" index="1" disallow="tram rail_urban rail rail_electric rail_fast ship" speed="27.78" length="14.43" shape="475.73,732.05 474.65,746.45"/>
    </edge>
    <edge id=":junc_JanShoba_Prospect_w_3" function="internal">
        <lane id=":junc_JanShoba_Prospect_w_3_0" index="0" disallow="tram rail_urban rail rail_electric rail_fast ship" speed="6.47" length="9.03" shape="466.29,740.24 468.72,740.74 470.39,741.91 471.31,743.73 471.46,746.20"/>
    </edge>
    <edge id=":junc_JanShoba_Prospect_w_4" function="internal">
        <lane id=":junc_JanShoba_Prospect_w_4_0" index="0" disallow="tram rail_urban rail rail_electric rail_fast ship" speed="3.65" length="4.67" shape="466.29,740.24 467.54,739.52 467.99,738.74 467.64,737.92 466.50,737.05"/>
    </edge>
    <edge id=":junc_JanShoba_South_0" function="internal">
        <lane id=":junc_JanShoba_South_0_0" index="0" disallow="tram rail_urban rail rail_electric rail_fast ship" speed="7.27" length="11.80" shape="480.65,567.10 480.15,570.99 478.99,573.71 477.17,575.27 474.68,575.66"/>
    </edge>
    <edge id=":junc_JanShoba_South_1" function="internal">
        <lane id=":junc_JanShoba_South_1_0" index="0" disallow="tram rail_urban rail rail_electric rail_fast ship" speed="27.78" length="21.00" shape="480.65,567.10 481.36,588.11"/>
        <lane id=":junc_JanShoba_South_1_1" index="1" disallow="tram rail_urban rail rail_electric rail_fast ship" speed="27.78" length="21.00" shape="483.85,567.29 484.56,588.26"/>
    </edge>
    <edge id=":junc_JanShoba_South_3" function="internal">
        <lane id=":junc_JanShoba_South_3_0" index="0" disallow="tram rail_urban rail rail_electric rail_fast ship" speed="9.94" length="22.35" shape="487.04,567.49 487.80,572.86 490.55,576.79 495.28,579.28 501.99,580.34"/>
    </edge>
    <edge id=":junc_JanShoba_South_4" function="internal">
        <lane id=":junc_JanShoba_South_4_0" index="0" disallow="tram rail_urban rail rail_electric rail_fast ship" speed="4.42" length="7.87" shape="487.04,567.49 488.26,569.59 489.56,570.35 490.95,569.76 492.42,567.82"/>
    </edge>
    <edge id=":junc_JanShoba_South_5" function="internal">
        <lane id=":junc_JanShoba_South_5_0" index="0" disallow="tram rail_urban rail rail_electric rail_fast ship" speed="6.82" length="10.16" shape="502.27,573.94 499.22,573.46 497.10,572.31 495.90,570.50 495.61,568.02"/>
    </edge>
    <edge id=":junc_JanShoba_South_6" function="internal">
        <lane id=":junc_JanShoba_South_6_0" index="0" disallow="tram rail_urban rail rail_electric rail_fast ship" speed="13.89" length="27.66" shape="502.27,573.94 494.44,574.07 486.60,574.76 479.69,575.47 474.68,575.66"/>
    </edge>
    <edge id=":junc_JanShoba_South_7" function="internal">
        <lane id=":junc_JanShoba_South_7_0" index="0" disallow="tram rail_urban rail rail_electric rail_fast ship" speed="10.17" length="13.66" shape="502.13,577.14 494.65,577.56 489.23,579.55 488.96,579.84"/>
    </edge>
    <edge id=":junc_JanShoba_South_8" function="internal">
        <lane id=":junc_JanShoba_South_8_0" index="0" disallow="tram rail_urban rail rail_electric rail_fast ship" speed="3.65" length="2.49" shape="502.13,577.14 500.89,577.89 500.46,578.67 500.52,578.81"/>
    </edge>
    <edge id=":junc_JanShoba_South_18" function="internal">
        <lane id=":junc_JanShoba_South_18_0" index="0" disallow="tram rail_urban rail rail_electric rail_fast ship" speed="10.17" length="9.82" shape="488.96,579.84 485.87,583.12 484.56,588.26"/>
    </edge>
    <edge id=":junc_JanShoba_South_19" function="internal">
        <lane id=":junc_JanShoba_South_19_0" index="0" disallow="tram rail_urban rail rail_electric rail_fast ship" speed="3.65" length="2.18" shape="500.52,578.81 500.82,579.48 501.99,580.34"/>
    </edge>
    <edge id=":junc_JanShoba_South_9" function="internal">
        <lane id=":junc_JanShoba_South_9_0" index="0" disallow="tram rail_urban rail rail_electric rail_fast ship" speed="7.41" length="11.72" shape="495.78,588.79 496.42,585.00 497.66,582.33 499.52,580.77 501.99,580.34"/>
    </edge>
    <edge id=":junc_JanShoba_South_10" function="internal">
        <lane id=":junc_JanShoba_South_10_0" index="0" disallow="tram rail_urban rail rail_electric rail_fast ship" speed="27.78" length="20.80" shape="495.78,588.79 495.61,568.02"/>
        <lane id=":junc_JanShoba_South_10_1" index="1" disallow="tram rail_urban rail rail_electric rail_fast ship" speed="27.78" length="20.80" shape="492.58,588.64 492.42,567.82"/>
    </edge>
    <edge id=":junc_JanShoba_South_12" function="internal">
        <lane id=":junc_JanShoba_South_12_0" index="0" disallow="tram rail_urban rail rail_electric rail_fast ship" speed="9.85" length="22.16" shape="489.38,588.49 488.80,583.28 486.16,579.40 481.45,576.86 474.68,575.66"/>
    </edge>
    <edge id=":junc_JanShoba_South_13" function="internal">
        <lane id=":junc_JanShoba_South_13_0" index="0" disallow="tram rail_urban rail rail_electric rail_fast ship" speed="4.24" length="7.05" shape="489.38,588.49 488.26,586.62 487.08,585.96 485.85,586.51 484.56,588.26"/>
    </edge>
    <edge id=":junc_JanShoba_South_14" function="internal">
        <lane id=":junc_JanShoba_South_14_0" index="0" disallow="tram rail_urban rail rail_electric rail_fast ship" speed="7.00" length="10.54" shape="474.24,582.11 477.45,582.64 479.71,583.82 481.01,585.64 481.36,588.11"/>
    </edge>
    <edge id=":junc_JanShoba_South_15" function="internal">
        <lane id=":junc_JanShoba_South_15_0" index="0" disallow="tram rail_urban rail rail_electric rail_fast ship" speed="13.89" length="27.83" shape="474.24,582.11 482.08,582.04 489.98,581.35 496.95,580.60 501.99,580.34"/>
    </edge>
    <edge id=":junc_JanShoba_South_16" function="internal">
        <lane id=":junc_JanShoba_South_16_0" index="0" disallow="tram rail_urban rail rail_electric rail_fast ship" speed="10.24" length="13.97" shape="474.46,578.92 482.03,578.59 487.55,576.63 487.92,576.25"/>
    </edge>
    <edge id=":junc_JanShoba_South_17" function="internal">
        <lane id=":junc_JanShoba_South_17_0" index="0" disallow="tram rail_urban rail rail_electric rail_fast ship" speed="3.68" length="2.60" shape="474.46,578.92 475.73,578.18 476.20,577.40 476.12,577.20"/>
    </edge>
    <edge id=":junc_JanShoba_South_20" function="internal">
        <lane id=":junc_JanShoba_South_20_0" index="0" disallow="tram rail_urban rail rail_electric rail_fast ship" speed="10.24" length="9.87" shape="487.92,576.25 491.02,573.04 492.42,567.82"/>
    </edge>
    <edge id=":junc_JanShoba_South_21" function="internal">
        <lane id=":junc_JanShoba_South_21_0" index="0" disallow="tram rail_urban rail rail_electric rail_fast ship" speed="3.68" length="2.18" shape="476.12,577.20 475.85,576.55 474.68,575.66"/>
    </edge>
    <edge id=":junc_Lunnon_w_0" function="internal">
        <lane id=":junc_Lunnon_w_0_0" index="0" disallow="tram rail_urban rail rail_electric rail_fast ship" speed="3.65" length="4.67" shape="110.98,216.50 110.04,217.59 109.87,218.47 110.47,219.13 111.84,219.58"/>
    </edge>
    <edge id=":junc_Prospect_e_0" function="internal">
        <lane id=":junc_Prospect_e_0_0" index="0" disallow="tram rail_urban rail rail_electric rail_fast ship" speed="3.65" length="4.67" shape="720.62,757.43 721.87,756.71 722.33,755.94 721.98,755.11 720.84,754.23"/>
    </edge>
    <edge id=":junc_South_e_0" function="internal">
        <lane id=":junc_South_e_0_0" index="0" disallow="tram rail_urban rail rail_electric rail_fast ship" speed="3.65" length="4.67" shape="730.18,595.46 731.43,594.74 731.89,593.97 731.54,593.15 730.40,592.26"/>
    </edge>
    <edge id=":junc_South_w_0" function="internal">
        <lane id=":junc_South_w_0_0" index="0" disallow="tram rail_urban rail rail_electric rail_fast ship" speed="4.22" length="7.02" shape="31.31,545.90 29.43,546.97 28.75,548.13 29.26,549.37 30.98,550.70"/>
    </edge>
    <edge id=":rs1_Duxbury_e_0" function="internal">
        <lane id=":rs1_Duxbury_e_0_0" index="0" disallow="tram rail_urban rail rail_electric rail_fast ship" speed="13.89" length="7.41" shape="330.10,310.52 323.12,313.00"/>
    </edge>
    <edge id=":rs1_Duxbury_e_1" function="internal">
        <lane id=":rs1_Duxbury_e_1_0" index="0" disallow="tram rail_urban rail rail_electric rail_fast ship" speed="13.89" length="8.36" shape="324.09,316.05 326.64,315.71 328.51,316.11 330.34,316.39 332.73,315.69"/>
        <lane id=":rs1_Duxbury_e_1_1" index="1" disallow="tram rail_urban rail rail_electric rail_fast ship" speed="13.89" length="8.36" shape="324.09,316.05 326.30,315.29 327.78,314.66 329.21,313.92 331.28,312.84"/>
    </edge>
    <edge id=":rs1_JanShoba_n_0" function="internal">
        <lane id=":rs1_JanShoba_n_0_0" index="0" disallow="tram rail_urban rail rail_electric rail_fast ship" speed="27.78" length="8.21" shape="327.79,80.48 328.23,82.85 328.16,84.54 328.08,86.23 328.52,88.60"/>
        <lane id=":rs1_JanShoba_n_0_1" index="1" disallow="tram rail_urban rail rail_electric rail_fast ship" speed="27.78" length="8.21" shape="330.86,79.57 331.30,81.94 331.23,83.63 331.15,85.33 331.59,87.70"/>
        <lane id=":rs1_JanShoba_n_0_2" index="2" disallow="tram rail_urban rail rail_electric rail_fast ship" speed="27.78" length="8.21" shape="330.86,79.57 331.78,81.80 332.76,83.18 333.74,84.56 334.66,86.79"/>
    </edge>
    <edge id=":rs1_JanShoba_s_0" function="internal">
        <lane id=":rs1_JanShoba_s_0_0" index="0" disallow="tram rail_urban rail rail_electric rail_fast ship" speed="27.78" length="8.20" shape="490.50,633.02 490.99,630.65 491.69,629.10 492.39,627.55 492.85,625.18"/>
        <lane id=":rs1_JanShoba_s_0_1" index="1" disallow="tram rail_urban rail rail_electric rail_fast ship" speed="27.78" length="8.20" shape="487.32,632.69 487.80,630.34 488.51,628.80 489.20,627.26 489.66,624.90"/>
        <lane id=":rs1_JanShoba_s_0_2" index="2" disallow="tram rail_urban rail rail_electric rail_fast ship" speed="27.78" length="8.20" shape="487.32,632.69 487.31,630.30 486.91,628.66 486.51,627.02 486.48,624.62"/>
    </edge>
    <edge id=":rs1_Lunnon_e_0" function="internal">
        <lane id=":rs1_Lunnon_e_0_0" index="0" disallow="tram rail_urban rail rail_electric rail_fast ship" speed="10.71" length="5.73" shape="381.42,141.50 379.80,141.81 378.65,141.71 377.50,141.32 375.88,140.78"/>
    </edge>
    <edge id=":rs1_Lunnon_e_1" function="internal">
        <lane id=":rs1_Lunnon_e_1_0" index="0" disallow="tram rail_urban rail rail_electric rail_fast ship" speed="3.65" length="2.34" shape="381.42,141.50 380.48,142.59 380.31,143.47"/>
    </edge>
    <edge id=":rs1_Lunnon_e_6" function="internal">
        <lane id=":rs1_Lunnon_e_6_0" index="0" disallow="tram rail_urban rail rail_electric rail_fast ship" speed="3.65" length="2.34" shape="380.31,143.47 380.91,144.13 382.28,144.58"/>
    </edge>
    <edge id=":rs1_Lunnon_e_2" function="internal">
        <lane id=":rs1_Lunnon_e_2_0" index="0" disallow="tram rail_urban rail rail_electric rail_fast ship" speed="18.05" length="12.03" shape="371.54,149.75 374.20,147.84 376.58,146.52 379.12,145.52 382.28,144.58"/>
    </edge>
    <edge id=":rs1_Lunnon_e_3" function="internal">
        <lane id=":rs1_Lunnon_e_3_0" index="0" disallow="tram rail_urban rail rail_electric rail_fast ship" speed="6.28" length="9.20" shape="371.54,149.75 375.41,146.39 377.43,143.77 377.49,143.01"/>
    </edge>
    <edge id=":rs1_Lunnon_e_7" function="internal">
        <lane id=":rs1_Lunnon_e_7_0" index="0" disallow="tram rail_urban rail rail_electric rail_fast ship" speed="6.28" length="3.15" shape="377.49,143.01 377.58,141.90 375.88,140.78"/>
    </edge>
    <edge id=":rs1_Lunnon_e_4" function="internal">
        <lane id=":rs1_Lunnon_e_4_0" index="0" disallow="tram rail_urban rail rail_electric rail_fast ship" speed="13.89" length="12.38" shape="370.04,146.29 373.31,145.65 376.16,145.44 379.01,145.23 382.28,144.58"/>
    </edge>
    <edge id=":rs1_Lunnon_e_5" function="internal">
        <lane id=":rs1_Lunnon_e_5_0" index="0" disallow="tram rail_urban rail rail_electric rail_fast ship" speed="5.78" length="12.30" shape="370.04,146.29 375.21,144.62 377.91,143.15 378.13,141.87 375.88,140.78"/>
    </edge>
    <edge id=":rs1_South_e_0" function="internal">
        <lane id=":rs1_South_e_0_0" index="0" disallow="tram rail_urban rail rail_electric rail_fast ship" speed="13.89" length="8.39" shape="443.77,580.31 451.76,580.82"/>
        <lane id=":rs1_South_e_0_1" index="1" disallow="tram rail_urban rail rail_electric rail_fast ship" speed="13.89" length="8.39" shape="443.77,580.31 446.25,579.99 447.85,578.99 449.45,577.99 451.94,577.63"/>
    </edge>
    <edge id=":rs1_South_w_0" function="internal">