<?xml version="1.0" encoding="UTF-8"?>

<!-- generated on Mon Aug 31 14:55:06 2020 by Eclipse SUMO netedit Version 1.6.0
<configuration xmlns:xsi="http://www.w3.org/2001/XMLSchema-instance" xsi:noNamespaceSchemaLocation="http://sumo.dlr.de/xsd/netconvertConfiguration.xsd">

    <input>
        <sumo-net-file value="/Users/thiveshanpillay/Documents/2020/COS%20301/Capstone/GitHub_Lightbot/LightBot/lightbot_sim/scenarios/Jan_Shoba_Multi_Peak/sim.net.xml"/>
    </input>

    <output>
        <output-file value="/Users/thiveshanpillay/Documents/2020/COS%20301/Capstone/GitHub_Lightbot/LightBot/lightbot_sim/scenarios/Jan_Shoba_Multi_Peak/sim.net.xml"/>
        <output.street-names value="true"/>
    </output>

    <processing>
        <geometry.min-radius.fix.railways value="false"/>
        <geometry.max-grade.fix value="false"/>
        <offset.disable-normalization value="true"/>
        <lefthand value="true"/>
    </processing>

    <junctions>
        <no-turnarounds value="true"/>
        <junctions.corner-detail value="5"/>
        <junctions.limit-turn-speed value="5.5"/>
        <rectangular-lane-cut value="false"/>
    </junctions>

    <pedestrian>
        <walkingareas value="false"/>
    </pedestrian>

    <report>
        <aggregate-warnings value="5"/>
    </report>

</configuration>
-->

<net version="1.6" junctionCornerDetail="5" lefthand="true" limitTurnSpeed="5.50" xmlns:xsi="http://www.w3.org/2001/XMLSchema-instance" xsi:noNamespaceSchemaLocation="http://sumo.dlr.de/xsd/net_file.xsd">

    <location netOffset="-623905.01,2849515.85" convBoundary="31.21,0.00,777.60,821.59" origBoundary="28.235474,-25.760747,28.250874,-25.745772" projParameter="+proj=utm +zone=35 +ellps=WGS84 +datum=WGS84 +units=m +no_defs"/>

    <type id="highway.bridleway" priority="1" numLanes="1" speed="2.78" allow="pedestrian" oneway="1" width="2.00"/>
    <type id="highway.bus_guideway" priority="1" numLanes="1" speed="27.78" allow="bus" oneway="1"/>
    <type id="highway.cycleway" priority="1" numLanes="1" speed="8.33" allow="bicycle" oneway="0" width="1.00"/>
    <type id="highway.footway" priority="1" numLanes="1" speed="2.78" allow="pedestrian" oneway="1" width="2.00"/>
    <type id="highway.ford" priority="1" numLanes="1" speed="2.78" allow="army" oneway="0"/>
    <type id="highway.living_street" priority="2" numLanes="1" speed="2.78" disallow="tram rail_urban rail rail_electric rail_fast ship" oneway="0"/>
    <type id="highway.motorway" priority="14" numLanes="2" speed="39.44" allow="private emergency authority army vip passenger hov taxi bus coach delivery truck trailer motorcycle evehicle custom1 custom2" oneway="1"/>
    <type id="highway.motorway_link" priority="9" numLanes="1" speed="22.22" allow="private emergency authority army vip passenger hov taxi bus coach delivery truck trailer motorcycle evehicle custom1 custom2" oneway="1"/>
    <type id="highway.path" priority="1" numLanes="1" speed="2.78" allow="pedestrian bicycle" oneway="1" width="2.00"/>
    <type id="highway.pedestrian" priority="1" numLanes="1" speed="2.78" allow="pedestrian" oneway="1" width="2.00"/>
    <type id="highway.primary" priority="12" numLanes="2" speed="27.78" disallow="tram rail_urban rail rail_electric rail_fast ship" oneway="0"/>
    <type id="highway.primary_link" priority="7" numLanes="1" speed="22.22" disallow="tram rail_urban rail rail_electric rail_fast ship" oneway="0"/>
    <type id="highway.raceway" priority="15" numLanes="2" speed="83.33" allow="vip" oneway="0"/>
    <type id="highway.residential" priority="3" numLanes="1" speed="13.89" disallow="tram rail_urban rail rail_electric rail_fast ship" oneway="0"/>
    <type id="highway.secondary" priority="11" numLanes="1" speed="27.78" disallow="tram rail_urban rail rail_electric rail_fast ship" oneway="0"/>
    <type id="highway.secondary_link" priority="6" numLanes="1" speed="22.22" disallow="tram rail_urban rail rail_electric rail_fast ship" oneway="0"/>
    <type id="highway.service" priority="1" numLanes="1" speed="5.56" allow="pedestrian delivery bicycle" oneway="0"/>
    <type id="highway.stairs" priority="1" numLanes="1" speed="1.39" allow="pedestrian" oneway="1" width="2.00"/>
    <type id="highway.step" priority="1" numLanes="1" speed="1.39" allow="pedestrian" oneway="1" width="2.00"/>
    <type id="highway.steps" priority="1" numLanes="1" speed="1.39" allow="pedestrian" oneway="1" width="2.00"/>
    <type id="highway.tertiary" priority="10" numLanes="1" speed="22.22" disallow="tram rail_urban rail rail_electric rail_fast ship" oneway="0"/>
    <type id="highway.tertiary_link" priority="5" numLanes="1" speed="22.22" disallow="tram rail_urban rail rail_electric rail_fast ship" oneway="0"/>
    <type id="highway.track" priority="1" numLanes="1" speed="5.56" disallow="tram rail_urban rail rail_electric rail_fast ship" oneway="0"/>
    <type id="highway.trunk" priority="13" numLanes="2" speed="27.78" disallow="pedestrian bicycle tram rail_urban rail rail_electric rail_fast ship" oneway="0"/>
    <type id="highway.trunk_link" priority="8" numLanes="1" speed="22.22" disallow="pedestrian bicycle tram rail_urban rail rail_electric rail_fast ship" oneway="0"/>
    <type id="highway.unclassified" priority="4" numLanes="1" speed="13.89" disallow="tram rail_urban rail rail_electric rail_fast ship" oneway="0"/>
    <type id="highway.unsurfaced" priority="1" numLanes="1" speed="8.33" disallow="tram rail_urban rail rail_electric rail_fast ship" oneway="0"/>
    <type id="railway.highspeed" priority="21" numLanes="1" speed="69.44" allow="rail_fast" oneway="1"/>
    <type id="railway.light_rail" priority="19" numLanes="1" speed="27.78" allow="rail_urban" oneway="1"/>
    <type id="railway.preserved" priority="16" numLanes="1" speed="27.78" allow="rail" oneway="1"/>
    <type id="railway.rail" priority="20" numLanes="1" speed="44.44" allow="rail" oneway="1"/>
    <type id="railway.subway" priority="18" numLanes="1" speed="27.78" allow="rail_urban" oneway="1"/>
    <type id="railway.tram" priority="17" numLanes="1" speed="13.89" allow="tram" oneway="1"/>

    <edge id=":1749841428_0" function="internal">
        <lane id=":1749841428_0_0" index="0" disallow="tram rail_urban rail rail_electric rail_fast ship" speed="13.89" length="8.41" shape="535.39,578.69 532.96,578.02 531.48,576.82 530.00,575.65 527.56,575.04"/>
        <lane id=":1749841428_0_1" index="1" disallow="tram rail_urban rail rail_electric rail_fast ship" speed="13.89" length="8.41" shape="535.39,578.69 527.42,578.24"/>
    </edge>
    <edge id=":1749841428_2" function="internal">
        <lane id=":1749841428_2_0" index="0" disallow="tram rail_urban rail rail_electric rail_fast ship" speed="13.89" length="7.90" shape="527.28,581.44 535.17,581.88"/>
    </edge>
    <edge id=":2434428167_0" function="internal">
        <lane id=":2434428167_0_0" index="0" disallow="tram rail_urban rail rail_electric rail_fast ship" speed="25.00" length="10.29" shape="425.76,340.15 424.98,337.25 425.10,335.04 425.13,332.89 424.10,330.16"/>
    </edge>
    <edge id=":2434428167_1" function="internal">
        <lane id=":2434428167_1_0" index="0" disallow="tram rail_urban rail rail_electric rail_fast ship" speed="27.78" length="9.14" shape="425.76,340.15 424.39,337.70 423.15,336.19 421.96,334.66 420.73,332.15"/>
        <lane id=":2434428167_1_1" index="1" disallow="tram rail_urban rail rail_electric rail_fast ship" speed="27.78" length="9.14" shape="422.84,341.46 421.52,339.12 420.30,337.67 419.13,336.21 417.94,333.81"/>
        <lane id=":2434428167_1_2" index="2" disallow="tram rail_urban rail rail_electric rail_fast ship" speed="27.78" length="9.14" shape="419.92,342.78 418.64,340.53 417.45,339.16 416.30,337.77 415.15,335.46"/>
    </edge>
    <edge id=":244372141#0-AddedOffRampNode_0" function="internal">
        <lane id=":244372141#0-AddedOffRampNode_0_0" index="0" disallow="tram rail_urban rail rail_electric rail_fast ship" speed="27.78" length="1.61" shape="399.96,279.36 402.76,277.60"/>
        <lane id=":244372141#0-AddedOffRampNode_0_1" index="1" disallow="tram rail_urban rail rail_electric rail_fast ship" speed="27.78" length="1.61" shape="399.96,279.36 399.71,278.57"/>
        <lane id=":244372141#0-AddedOffRampNode_0_2" index="2" disallow="tram rail_urban rail rail_electric rail_fast ship" speed="27.78" length="1.61" shape="396.87,280.21 396.66,279.55"/>
    </edge>
    <edge id=":2516980588_0" function="internal">
        <lane id=":2516980588_0_0" index="0" disallow="tram rail_urban rail rail_electric rail_fast ship" speed="13.89" length="7.41" shape="330.10,310.52 323.12,313.00"/>
    </edge>
    <edge id=":2516980588_1" function="internal">
        <lane id=":2516980588_1_0" index="0" disallow="tram rail_urban rail rail_electric rail_fast ship" speed="13.89" length="8.36" shape="324.09,316.05 326.64,315.71 328.51,316.11 330.34,316.39 332.73,315.69"/>
        <lane id=":2516980588_1_1" index="1" disallow="tram rail_urban rail rail_electric rail_fast ship" speed="13.89" length="8.36" shape="324.09,316.05 326.30,315.29 327.78,314.66 329.21,313.92 331.28,312.84"/>
    </edge>
    <edge id=":2516980596_0" function="internal">
        <lane id=":2516980596_0_0" index="0" disallow="tram rail_urban rail rail_electric rail_fast ship" speed="27.78" length="8.07" shape="422.59,291.36 430.39,289.29"/>
    </edge>
    <edge id=":2516980596_1" function="internal">
        <lane id=":2516980596_1_0" index="0" disallow="tram rail_urban rail rail_electric rail_fast ship" speed="25.00" length="8.08" shape="423.32,294.08 425.68,293.68 427.29,293.37 428.89,292.99 431.21,292.39"/>
    </edge>
    <edge id=":25290892_0" function="internal">
        <lane id=":25290892_0_0" index="0" disallow="tram rail_urban rail rail_electric rail_fast ship" speed="3.65" length="4.67" shape="730.18,595.46 731.43,594.74 731.89,593.97 731.54,593.15 730.40,592.26"/>
    </edge>
    <edge id=":25290951_0" function="internal">
        <lane id=":25290951_0_0" index="0" disallow="tram rail_urban rail rail_electric rail_fast ship" speed="3.65" length="4.67" shape="720.62,757.43 721.87,756.71 722.33,755.94 721.98,755.11 720.84,754.23"/>
    </edge>
    <edge id=":25290952_0" function="internal">
        <lane id=":25290952_0_0" index="0" disallow="tram rail_urban rail rail_electric rail_fast ship" speed="6.54" length="9.09" shape="472.54,731.83 472.01,734.24 470.83,735.92 468.99,736.85 466.50,737.05"/>
    </edge>
    <edge id=":25290952_1" function="internal">
        <lane id=":25290952_1_0" index="0" disallow="tram rail_urban rail rail_electric rail_fast ship" speed="27.78" length="14.43" shape="472.54,731.83 471.46,746.20"/>
        <lane id=":25290952_1_1" index="1" disallow="tram rail_urban rail rail_electric rail_fast ship" speed="27.78" length="14.43" shape="475.73,732.05 474.65,746.45"/>
    </edge>
    <edge id=":25290952_3" function="internal">
        <lane id=":25290952_3_0" index="0" disallow="tram rail_urban rail rail_electric rail_fast ship" speed="6.47" length="9.03" shape="466.29,740.24 468.72,740.74 470.39,741.91 471.31,743.73 471.46,746.20"/>
    </edge>
    <edge id=":25290952_4" function="internal">
        <lane id=":25290952_4_0" index="0" disallow="tram rail_urban rail rail_electric rail_fast ship" speed="3.65" length="4.67" shape="466.29,740.24 467.54,739.52 467.99,738.74 467.64,737.92 466.50,737.05"/>
    </edge>
    <edge id=":292560473_0" function="internal">
        <lane id=":292560473_0_0" index="0" disallow="tram rail_urban rail rail_electric rail_fast ship" speed="3.65" length="4.67" shape="275.12,328.22 274.21,329.35 274.07,330.23 274.70,330.88 276.08,331.28"/>
    </edge>
    <edge id=":5552509611_0" function="internal">
        <lane id=":5552509611_0_0" index="0" disallow="tram rail_urban rail rail_electric rail_fast ship" speed="27.78" length="8.15" shape="484.04,517.12 483.83,519.54 483.33,521.16 482.84,522.79 482.71,525.20"/>
        <lane id=":5552509611_0_1" index="1" disallow="tram rail_urban rail rail_electric rail_fast ship" speed="27.78" length="8.15" shape="487.24,517.07 487.03,519.45 486.52,521.06 486.04,522.66 485.90,525.04"/>
        <lane id=":5552509611_0_2" index="2" disallow="tram rail_urban rail rail_electric rail_fast ship" speed="27.78" length="8.15" shape="487.24,517.07 487.53,519.42 488.12,520.98 488.74,522.53 489.10,524.88"/>
    </edge>
    <edge id=":5837647090_0" function="internal">
        <lane id=":5837647090_0_0" index="0" disallow="tram rail_urban rail rail_electric rail_fast ship" speed="27.78" length="8.40" shape="364.58,214.52 364.76,217.03 364.12,218.81 363.49,220.60 363.68,223.10"/>
        <lane id=":5837647090_0_1" index="1" disallow="tram rail_urban rail rail_electric rail_fast ship" speed="27.78" length="8.40" shape="364.58,214.52 366.76,222.23"/>
        <lane id=":5837647090_0_2" index="2" disallow="tram rail_urban rail rail_electric rail_fast ship" speed="27.78" length="8.40" shape="367.66,213.66 369.83,221.35"/>
        <lane id=":5837647090_0_3" index="3" disallow="tram rail_urban rail rail_electric rail_fast ship" speed="27.78" length="8.40" shape="367.66,213.66 368.80,215.89 370.28,217.07 371.76,218.24 372.91,220.47"/>
    </edge>
    <edge id=":5837647095_0" function="internal">
        <lane id=":5837647095_0_0" index="0" disallow="tram rail_urban rail rail_electric rail_fast ship" speed="27.78" length="8.27" shape="429.15,355.48 428.60,353.03 428.97,351.17 429.34,349.32 428.79,346.87"/>
        <lane id=":5837647095_0_1" index="1" disallow="tram rail_urban rail rail_electric rail_fast ship" speed="27.78" length="8.27" shape="429.15,355.48 425.87,348.18"/>
        <lane id=":5837647095_0_2" index="2" disallow="tram rail_urban rail rail_electric rail_fast ship" speed="27.78" length="8.27" shape="426.23,356.79 422.95,349.50"/>
    </edge>
    <edge id=":5837647097_0" function="internal">
        <lane id=":5837647097_0_0" index="0" disallow="tram rail_urban rail rail_electric rail_fast ship" speed="27.78" length="8.20" shape="490.50,633.02 490.99,630.65 491.69,629.10 492.39,627.55 492.85,625.18"/>
        <lane id=":5837647097_0_1" index="1" disallow="tram rail_urban rail rail_electric rail_fast ship" speed="27.78" length="8.20" shape="487.32,632.69 487.80,630.34 488.51,628.80 489.20,627.26 489.66,624.90"/>
        <lane id=":5837647097_0_2" index="2" disallow="tram rail_urban rail rail_electric rail_fast ship" speed="27.78" length="8.20" shape="487.32,632.69 487.31,630.30 486.91,628.66 486.51,627.02 486.48,624.62"/>
    </edge>
    <edge id=":5845202054_0" function="internal">
        <lane id=":5845202054_0_0" index="0" disallow="tram rail_urban rail rail_electric rail_fast ship" speed="27.78" length="8.21" shape="327.79,80.48 328.23,82.85 328.16,84.54 328.08,86.23 328.52,88.60"/>
        <lane id=":5845202054_0_1" index="1" disallow="tram rail_urban rail rail_electric rail_fast ship" speed="27.78" length="8.21" shape="330.86,79.57 331.30,81.94 331.23,83.63 331.15,85.33 331.59,87.70"/>
        <lane id=":5845202054_0_2" index="2" disallow="tram rail_urban rail rail_electric rail_fast ship" speed="27.78" length="8.21" shape="330.86,79.57 331.78,81.80 332.76,83.18 333.74,84.56 334.66,86.79"/>
    </edge>
    <edge id=":5845202062_0" function="internal">
        <lane id=":5845202062_0_0" index="0" disallow="tram rail_urban rail rail_electric rail_fast ship" speed="25.00" length="9.59" shape="374.52,189.86 373.61,187.17 372.85,185.37 371.93,183.65 370.53,181.17"/>
    </edge>
    <edge id=":5845202062_1" function="internal">
        <lane id=":5845202062_1_0" index="0" disallow="tram rail_urban rail rail_electric rail_fast ship" speed="27.78" length="8.70" shape="371.47,190.84 368.71,182.22"/>
        <lane id=":5845202062_1_1" index="1" disallow="tram rail_urban rail rail_electric rail_fast ship" speed="27.78" length="8.70" shape="368.43,191.82 365.87,183.86"/>
    </edge>
    <edge id=":611769794_0" function="internal">
        <lane id=":611769794_0_0" index="0" disallow="tram rail_urban rail rail_electric rail_fast ship" speed="6.49" length="9.03" shape="487.96,738.68 485.53,738.17 483.86,737.01 482.93,735.19 482.75,732.72"/>
    </edge>
    <edge id=":611769794_1" function="internal">
        <lane id=":611769794_1_0" index="0" disallow="tram rail_urban rail rail_electric rail_fast ship" speed="3.65" length="4.67" shape="487.96,738.68 486.71,739.40 486.26,740.17 486.61,740.99 487.75,741.87"/>
    </edge>
    <edge id=":611769794_2" function="internal">
        <lane id=":611769794_2_0" index="0" disallow="tram rail_urban rail rail_electric rail_fast ship" speed="6.53" length="9.06" shape="481.74,747.09 482.26,744.67 483.44,742.99 485.27,742.06 487.75,741.87"/>
    </edge>
    <edge id=":611769794_3" function="internal">
        <lane id=":611769794_3_0" index="0" disallow="tram rail_urban rail rail_electric rail_fast ship" speed="27.78" length="14.40" shape="481.74,747.09 482.75,732.72"/>
        <lane id=":611769794_3_1" index="1" disallow="tram rail_urban rail rail_electric rail_fast ship" speed="27.78" length="14.40" shape="478.55,746.86 479.56,732.50"/>
    </edge>
    <edge id=":7067264051_0" function="internal">
        <lane id=":7067264051_0_0" index="0" disallow="tram rail_urban rail rail_electric rail_fast ship" speed="13.89" length="0.20" shape="265.55,724.32 265.36,724.30"/>
    </edge>
    <edge id=":7067264051_1" function="internal">
        <lane id=":7067264051_1_0" index="0" disallow="tram rail_urban rail rail_electric rail_fast ship" speed="13.89" length="0.37" shape="264.98,727.53 265.09,727.52 265.17,727.52 265.24,727.51 265.35,727.52"/>
    </edge>
    <edge id=":7067264078_0" function="internal">
        <lane id=":7067264078_0_0" index="0" disallow="tram rail_urban rail rail_electric rail_fast ship" speed="3.65" length="4.67" shape="31.31,545.90 30.06,546.62 29.61,547.39 29.95,548.21 31.09,549.10"/>
    </edge>
    <edge id=":7139407714_0" function="internal">
        <lane id=":7139407714_0_0" index="0" disallow="tram rail_urban rail rail_electric rail_fast ship" speed="10.71" length="5.73" shape="381.42,141.50 379.80,141.81 378.65,141.71 377.50,141.32 375.88,140.78"/>
    </edge>
    <edge id=":7139407714_1" function="internal">
        <lane id=":7139407714_1_0" index="0" disallow="tram rail_urban rail rail_electric rail_fast ship" speed="3.65" length="2.34" shape="381.42,141.50 380.48,142.59 380.31,143.47"/>
    </edge>
    <edge id=":7139407714_6" function="internal">
        <lane id=":7139407714_6_0" index="0" disallow="tram rail_urban rail rail_electric rail_fast ship" speed="3.65" length="2.34" shape="380.31,143.47 380.91,144.13 382.28,144.58"/>
    </edge>
    <edge id=":7139407714_2" function="internal">
        <lane id=":7139407714_2_0" index="0" disallow="tram rail_urban rail rail_electric rail_fast ship" speed="18.05" length="12.03" shape="371.54,149.75 374.20,147.84 376.58,146.52 379.12,145.52 382.28,144.58"/>
    </edge>
    <edge id=":7139407714_3" function="internal">
        <lane id=":7139407714_3_0" index="0" disallow="tram rail_urban rail rail_electric rail_fast ship" speed="6.28" length="9.20" shape="371.54,149.75 375.41,146.39 377.43,143.77 377.49,143.01"/>
    </edge>
    <edge id=":7139407714_7" function="internal">
        <lane id=":7139407714_7_0" index="0" disallow="tram rail_urban rail rail_electric rail_fast ship" speed="6.28" length="3.15" shape="377.49,143.01 377.58,141.90 375.88,140.78"/>
    </edge>
    <edge id=":7139407714_4" function="internal">
        <lane id=":7139407714_4_0" index="0" disallow="tram rail_urban rail rail_electric rail_fast ship" speed="13.89" length="12.38" shape="370.04,146.29 373.31,145.65 376.16,145.44 379.01,145.23 382.28,144.58"/>
    </edge>
    <edge id=":7139407714_5" function="internal">
        <lane id=":7139407714_5_0" index="0" disallow="tram rail_urban rail rail_electric rail_fast ship" speed="5.78" length="12.30" shape="370.04,146.29 375.21,144.62 377.91,143.15 378.13,141.87 375.88,140.78"/>
    </edge>
    <edge id=":cluster_2516980595_2516980597_25290876_611769785_0" function="internal">
        <lane id=":cluster_2516980595_2516980597_25290876_611769785_0_0" index="0" disallow="tram rail_urban rail rail_electric rail_fast ship" speed="6.57" length="8.85" shape="407.00,274.10 400.02,279.55"/>
    </edge>
    <edge id=":cluster_2516980595_2516980597_25290876_611769785_1" function="internal">
        <lane id=":cluster_2516980595_2516980597_25290876_611769785_1_0" index="0" disallow="tram rail_urban rail rail_electric rail_fast ship" speed="20.84" length="34.27" shape="407.82,277.20 396.90,281.42 388.58,286.60 382.46,291.25 378.13,293.90"/>
    </edge>
    <edge id=":cluster_2516980595_2516980597_25290876_611769785_2" function="internal">
        <lane id=":cluster_2516980595_2516980597_25290876_611769785_2_0" index="0" disallow="tram rail_urban rail rail_electric rail_fast ship" speed="11.19" length="26.92" shape="408.64,280.29 402.49,284.15 397.58,291.07 394.91,299.10 395.12,301.81"/>
    </edge>
    <edge id=":cluster_2516980595_2516980597_25290876_611769785_3" function="internal">
        <lane id=":cluster_2516980595_2516980597_25290876_611769785_3_0" index="0" disallow="tram rail_urban rail rail_electric rail_fast ship" speed="5.94" length="13.47" shape="409.46,283.38 406.15,287.12 405.52,290.15 407.57,292.47 409.73,293.21"/>
    </edge>
    <edge id=":cluster_2516980595_2516980597_25290876_611769785_17" function="internal">
        <lane id=":cluster_2516980595_2516980597_25290876_611769785_17_0" index="0" disallow="tram rail_urban rail rail_electric rail_fast ship" speed="11.19" length="4.53" shape="395.12,301.81 395.46,306.33"/>
    </edge>
    <edge id=":cluster_2516980595_2516980597_25290876_611769785_18" function="internal">
        <lane id=":cluster_2516980595_2516980597_25290876_611769785_18_0" index="0" disallow="tram rail_urban rail rail_electric rail_fast ship" speed="5.94" length="2.70" shape="409.73,293.21 412.29,294.09"/>
    </edge>
    <edge id=":cluster_2516980595_2516980597_25290876_611769785_4" function="internal">
        <lane id=":cluster_2516980595_2516980597_25290876_611769785_4_0" index="0" disallow="tram rail_urban rail rail_electric rail_fast ship" speed="27.78" length="23.34" shape="408.78,300.99 400.02,279.55"/>
        <lane id=":cluster_2516980595_2516980597_25290876_611769785_4_1" index="1" disallow="tram rail_urban rail rail_electric rail_fast ship" speed="27.78" length="23.34" shape="405.81,302.18 396.93,280.40"/>
    </edge>
    <edge id=":cluster_2516980595_2516980597_25290876_611769785_6" function="internal">
        <lane id=":cluster_2516980595_2516980597_25290876_611769785_6_0" index="0" disallow="tram rail_urban rail rail_electric rail_fast ship" speed="11.61" length="15.46" shape="402.84,303.37 399.06,296.95 393.68,293.23 392.23,293.02"/>
    </edge>
    <edge id=":cluster_2516980595_2516980597_25290876_611769785_7" function="internal">
        <lane id=":cluster_2516980595_2516980597_25290876_611769785_7_0" index="0" disallow="tram rail_urban rail rail_electric rail_fast ship" speed="5.17" length="8.67" shape="402.84,303.37 399.88,301.34 397.67,301.16 396.20,302.82 396.06,303.46"/>
    </edge>
    <edge id=":cluster_2516980595_2516980597_25290876_611769785_19" function="internal">
        <lane id=":cluster_2516980595_2516980597_25290876_611769785_19_0" index="0" disallow="tram rail_urban rail rail_electric rail_fast ship" speed="11.61" length="14.32" shape="392.23,293.02 386.70,292.22 378.13,293.90"/>
    </edge>
    <edge id=":cluster_2516980595_2516980597_25290876_611769785_20" function="internal">
        <lane id=":cluster_2516980595_2516980597_25290876_611769785_20_0" index="0" disallow="tram rail_urban rail rail_electric rail_fast ship" speed="5.17" length="2.93" shape="396.06,303.46 395.46,306.33"/>
    </edge>
    <edge id=":cluster_2516980595_2516980597_25290876_611769785_8" function="internal">
        <lane id=":cluster_2516980595_2516980597_25290876_611769785_8_0" index="0" disallow="tram rail_urban rail rail_electric rail_fast ship" speed="8.06" length="12.94" shape="381.36,303.81 385.34,303.21 388.52,303.63 390.90,305.07 392.49,307.52"/>
    </edge>
    <edge id=":cluster_2516980595_2516980597_25290876_611769785_9" function="internal">
        <lane id=":cluster_2516980595_2516980597_25290876_611769785_9_0" index="0" disallow="tram rail_urban rail rail_electric rail_fast ship" speed="20.84" length="32.43" shape="381.36,303.81 412.29,294.09"/>
    </edge>
    <edge id=":cluster_2516980595_2516980597_25290876_611769785_10" function="internal">
        <lane id=":cluster_2516980595_2516980597_25290876_611769785_10_0" index="0" disallow="tram rail_urban rail rail_electric rail_fast ship" speed="10.85" length="27.38" shape="380.36,300.76 386.87,297.72 392.73,292.58 396.55,286.43 396.88,281.28"/>
    </edge>
    <edge id=":cluster_2516980595_2516980597_25290876_611769785_11" function="internal">
        <lane id=":cluster_2516980595_2516980597_25290876_611769785_11_0" index="0" disallow="tram rail_urban rail rail_electric rail_fast ship" speed="5.00" length="8.35" shape="380.36,300.76 382.38,298.21 382.67,296.21 381.26,294.78 380.23,294.49"/>
    </edge>
    <edge id=":cluster_2516980595_2516980597_25290876_611769785_21" function="internal">
        <lane id=":cluster_2516980595_2516980597_25290876_611769785_21_0" index="0" disallow="tram rail_urban rail rail_electric rail_fast ship" speed="10.85" length="0.88" shape="396.88,281.28 396.93,280.40"/>
    </edge>
    <edge id=":cluster_2516980595_2516980597_25290876_611769785_22" function="internal">
        <lane id=":cluster_2516980595_2516980597_25290876_611769785_22_0" index="0" disallow="tram rail_urban rail rail_electric rail_fast ship" speed="5.00" length="2.18" shape="380.23,294.49 378.13,293.90"/>
    </edge>
    <edge id=":cluster_2516980595_2516980597_25290876_611769785_12" function="internal">
        <lane id=":cluster_2516980595_2516980597_25290876_611769785_12_0" index="0" disallow="tram rail_urban rail rail_electric rail_fast ship" speed="9.10" length="18.13" shape="379.03,277.00 380.59,283.76 380.97,288.83 380.15,292.21 378.13,293.90"/>
    </edge>
    <edge id=":cluster_2516980595_2516980597_25290876_611769785_13" function="internal">
        <lane id=":cluster_2516980595_2516980597_25290876_611769785_13_0" index="0" disallow="tram rail_urban rail rail_electric rail_fast ship" speed="27.78" length="32.66" shape="382.15,276.29 385.14,286.54 387.61,294.36 389.94,300.95 392.49,307.52"/>
        <lane id=":cluster_2516980595_2516980597_25290876_611769785_13_1" index="1" disallow="tram rail_urban rail rail_electric rail_fast ship" speed="27.78" length="32.66" shape="385.28,275.58 388.22,285.65 390.64,293.32 392.92,299.80 395.46,306.33"/>
    </edge>
    <edge id=":cluster_2516980595_2516980597_25290876_611769785_15" function="internal">
        <lane id=":cluster_2516980595_2516980597_25290876_611769785_15_0" index="0" disallow="tram rail_urban rail rail_electric rail_fast ship" speed="12.32" length="22.04" shape="388.40,274.87 392.43,284.98 397.76,291.55 400.21,292.67"/>
    </edge>
    <edge id=":cluster_2516980595_2516980597_25290876_611769785_16" function="internal">
        <lane id=":cluster_2516980595_2516980597_25290876_611769785_16_0" index="0" disallow="tram rail_urban rail rail_electric rail_fast ship" speed="5.75" length="13.25" shape="388.40,274.87 388.46,279.45 389.90,281.90 392.73,282.22 395.46,281.03"/>
    </edge>
    <edge id=":cluster_2516980595_2516980597_25290876_611769785_23" function="internal">
        <lane id=":cluster_2516980595_2516980597_25290876_611769785_23_0" index="0" disallow="tram rail_urban rail rail_electric rail_fast ship" speed="12.32" length="12.52" shape="400.21,292.67 404.37,294.59 412.29,294.09"/>
    </edge>
    <edge id=":cluster_2516980595_2516980597_25290876_611769785_24" function="internal">
        <lane id=":cluster_2516980595_2516980597_25290876_611769785_24_0" index="0" disallow="tram rail_urban rail rail_electric rail_fast ship" speed="5.75" length="1.60" shape="395.46,281.03 396.93,280.40"/>
    </edge>
    <edge id=":cluster_2516980625_2516980642_25290871_611769784_0" function="internal">
        <lane id=":cluster_2516980625_2516980642_25290871_611769784_0_0" index="0" disallow="tram rail_urban rail rail_electric rail_fast ship" speed="7.14" length="11.44" shape="360.47,156.54 359.91,153.36 360.47,150.82 362.16,148.93 364.97,147.68"/>
    </edge>
    <edge id=":cluster_2516980625_2516980642_25290871_611769784_1" function="internal">
        <lane id=":cluster_2516980625_2516980642_25290871_611769784_1_0" index="0" disallow="tram rail_urban rail rail_electric rail_fast ship" speed="27.78" length="14.36" shape="360.47,156.54 359.39,152.44 358.99,149.55 358.65,146.64 357.74,142.48"/>
        <lane id=":cluster_2516980625_2516980642_25290871_611769784_1_1" index="1" disallow="tram rail_urban rail rail_electric rail_fast ship" speed="27.78" length="14.36" shape="357.39,157.41 356.30,153.30 355.91,150.40 355.57,147.49 354.65,143.33"/>
    </edge>
    <edge id=":cluster_2516980625_2516980642_25290871_611769784_3" function="internal">
        <lane id=":cluster_2516980625_2516980642_25290871_611769784_3_0" index="0" disallow="tram rail_urban rail rail_electric rail_fast ship" speed="9.22" length="7.81" shape="357.39,157.41 355.38,153.99 352.05,152.08"/>
    </edge>
    <edge id=":cluster_2516980625_2516980642_25290871_611769784_4" function="internal">
        <lane id=":cluster_2516980625_2516980642_25290871_611769784_4_0" index="0" disallow="tram rail_urban rail rail_electric rail_fast ship" speed="4.42" length="5.10" shape="357.39,157.41 355.55,155.84 354.07,155.56 353.20,156.35"/>
    </edge>
    <edge id=":cluster_2516980625_2516980642_25290871_611769784_12" function="internal">