<?xml version="1.0" encoding="UTF-8"?>

<!-- generated on Wed Jun 10 18:20:15 2020 by Eclipse SUMO netedit Version 6bfc49c2
<configuration xmlns:xsi="http://www.w3.org/2001/XMLSchema-instance" xsi:noNamespaceSchemaLocation="http://sumo.dlr.de/xsd/netconvertConfiguration.xsd">

    <input>
        <sumo-net-file value="/Users/thiveshanpillay/Documents/2020/COS%20301/Capstone/Simulation/simulation.net.xml"/>
    </input>

    <output>
        <output-file value="/Users/thiveshanpillay/Documents/2020/COS%20301/Capstone/Simulation/simulation.net.xml"/>
    </output>

    <processing>
        <geometry.min-radius.fix.railways value="false"/>
        <geometry.max-grade.fix value="false"/>
        <offset.disable-normalization value="true"/>
        <lefthand value="false"/>
    </processing>

    <junctions>
        <no-turnarounds value="true"/>
        <junctions.corner-detail value="5"/>
        <junctions.limit-turn-speed value="5.5"/>
        <rectangular-lane-cut value="false"/>
    </junctions>

    <pedestrian>
        <walkingareas value="false"/>
    </pedestrian>

    <report>
        <aggregate-warnings value="5"/>
    </report>

</configuration>
-->

<net version="1.6" junctionCornerDetail="5" limitTurnSpeed="5.50" xmlns:xsi="http://www.w3.org/2001/XMLSchema-instance" xsi:noNamespaceSchemaLocation="http://sumo.dlr.de/xsd/net_file.xsd">

    <location netOffset="0.00,0.00" convBoundary="-100.00,0.00,300.00,200.00" origBoundary="-10000000000.00,-10000000000.00,10000000000.00,10000000000.00" projParameter="!"/>

    <edge id=":gneJ1_0" function="internal">
        <lane id=":gneJ1_0_0" index="0" speed="6.51" length="9.03" shape="98.40,107.20 98.05,104.75 97.00,103.00 95.25,101.95 92.80,101.60"/>
    </edge>
    <edge id=":gneJ1_1" function="internal">
        <lane id=":gneJ1_1_0" index="0" speed="13.89" length="14.40" shape="98.40,107.20 98.40,92.80"/>
    </edge>
    <edge id=":gneJ1_2" function="internal">
        <lane id=":gneJ1_2_0" index="0" speed="8.00" length="5.93" shape="98.40,107.20 98.95,103.35 100.00,101.60"/>
    </edge>
    <edge id=":gneJ1_12" function="internal">
        <lane id=":gneJ1_12_0" index="0" speed="8.00" length="8.26" shape="100.00,101.60 100.60,100.60 103.35,98.95 107.20,98.40"/>
    </edge>
    <edge id=":gneJ1_3" function="internal">
        <lane id=":gneJ1_3_0" index="0" speed="6.51" length="9.03" shape="107.20,101.60 104.75,101.95 103.00,103.00 101.95,104.75 101.60,107.20"/>
    </edge>
    <edge id=":gneJ1_4" function="internal">
        <lane id=":gneJ1_4_0" index="0" speed="13.89" length="14.40" shape="107.20,101.60 92.80,101.60"/>
    </edge>
    <edge id=":gneJ1_5" function="internal">
        <lane id=":gneJ1_5_0" index="0" speed="8.00" length="5.93" shape="107.20,101.60 103.35,101.05 101.60,100.00"/>
    </edge>
    <edge id=":gneJ1_13" function="internal">
        <lane id=":gneJ1_13_0" index="0" speed="8.00" length="8.26" shape="101.60,100.00 100.60,99.40 98.95,96.65 98.40,92.80"/>
    </edge>
    <edge id=":gneJ1_6" function="internal">
        <lane id=":gneJ1_6_0" index="0" speed="6.51" length="9.03" shape="101.60,92.80 101.95,95.25 103.00,97.00 104.75,98.05 107.20,98.40"/>
    </edge>
    <edge id=":gneJ1_7" function="internal">
        <lane id=":gneJ1_7_0" index="0" speed="13.89" length="14.40" shape="101.60,92.80 101.60,107.20"/>
    </edge>
    <edge id=":gneJ1_8" function="internal">
        <lane id=":gneJ1_8_0" index="0" speed="8.00" length="5.93" shape="101.60,92.80 101.05,96.65 100.00,98.40"/>
    </edge>
    <edge id=":gneJ1_14" function="internal">
        <lane id=":gneJ1_14_0" index="0" speed="8.00" length="8.26" shape="100.00,98.40 99.40,99.40 96.65,101.05 92.80,101.60"/>
    </edge>
    <edge id=":gneJ1_9" function="internal">
        <lane id=":gneJ1_9_0" index="0" speed="6.51" length="9.03" shape="92.80,98.40 95.25,98.05 97.00,97.00 98.05,95.25 98.40,92.80"/>
    </edge>
    <edge id=":gneJ1_10" function="internal">
        <lane id=":gneJ1_10_0" index="0" speed="13.89" length="14.40" shape="92.80,98.40 107.20,98.40"/>
    </edge>
    <edge id=":gneJ1_11" function="internal">
        <lane id=":gneJ1_11_0" index="0" speed="8.00" length="5.93" shape="92.80,98.40 96.65,98.95 98.40,100.00"/>
    </edge>
    <edge id=":gneJ1_15" function="internal">
        <lane id=":gneJ1_15_0" index="0" speed="8.00" length="8.26" shape="98.40,100.00 99.40,100.60 101.05,103.35 101.60,107.20"/>
    </edge>

    <edge id="e1" from="gneJ0" to="gneJ1" priority="-1">
        <lane id="e1_0" index="0" speed="13.89" length="192.80" shape="-100.00,98.40 92.80,98.40"/>
    </edge>
    <edge id="e1r" from="gneJ1" to="gneJ0" priority="-1">
        <lane id="e1r_0" index="0" speed="13.89" length="192.80" shape="92.80,101.60 -100.00,101.60"/>
    </edge>
    <edge id="e2" from="gneJ1" to="gneJ2" priority="-1">
        <lane id="e2_0" index="0" speed="13.89" length="192.80" shape="107.20,98.40 300.00,98.40"/>
    </edge>
    <edge id="e2r" from="gneJ2" to="gneJ1" priority="-1">
        <lane id="e2r_0" index="0" speed="13.89" length="192.80" shape="300.00,101.60 107.20,101.60"/>
    </edge>
    <edge id="e3" from="gneJ3" to="gneJ1" priority="-1">
        <lane id="e3_0" index="0" speed="13.89" length="92.80" shape="98.40,200.00 98.40,107.20"/>
    </edge>
    <edge id="e3r" from="gneJ1" to="gneJ3" priority="-1">
        <lane id="e3r_0" index="0" speed="13.89" length="92.80" shape="101.60,107.20 101.60,200.00"/>
    </edge>
    <edge id="e4" from="gneJ1" to="gneJ5" priority="-1">
        <lane id="e4_0" index="0" speed="13.89" length="92.80" shape="98.40,92.80 98.40,0.00"/>
    </edge>
    <edge id="e4r" from="gneJ5" to="gneJ1" priority="-1">
        <lane id="e4r_0" index="0" speed="13.89" length="92.80" shape="101.60,0.00 101.60,92.80"/>
    </edge>

    <tlLogic id="gneJ1" type="static" programID="0" offset="0">
        <phase duration="15" state="GGgrrrGGgrrr"/>
        <phase duration="5"  state="yyyrrryyyrrr"/>
        <phase duration="15" state="rrrGGgrrrGGg"/>
        <phase duration="5"  state="rrryyyrrryyy"/>
    </tlLogic>

    <junction id="gneJ0" type="dead_end" x="-100.00" y="100.00" incLanes="e1r_0" intLanes="" shape="-100.00,100.00 -100.00,103.20 -100.00,100.00"/>
    <junction id="gneJ1" type="traffic_light" x="100.00" y="100.00" incLanes="e3_0 e2r_0 e4r_0 e1_0" intLanes=":gneJ1_0_0 :gneJ1_1_0 :gneJ1_12_0 :gneJ1_3_0 :gneJ1_4_0 :gneJ1_13_0 :gneJ1_6_0 :gneJ1_7_0 :gneJ1_14_0 :gneJ1_9_0 :gneJ1_10_0 :gneJ1_15_0" shape="96.80,107.20 103.20,107.20 103.64,104.98 104.20,104.20 104.98,103.64 105.98,103.31 107.20,103.20 107.20,96.80 104.98,96.36 104.20,95.80 103.64,95.02 103.31,94.02 103.20,92.80 96.80,92.80 96.36,95.02 95.80,95.80 95.02,96.36 94.02,96.69 92.80,96.80 92.80,103.20 95.02,103.64 95.80,104.20 96.36,104.98 96.69,105.98">
        <request index="0"  response="000000000000" foes="000100010000" cont="0"/>
        <request index="1"  response="100000100000" foes="111100110000" cont="0"/>
        <request index="2"  response="100011100000" foes="110011110000" cont="1"/>
        <request index="3"  response="000010000000" foes="100010000000" cont="0"/>
        <request index="4"  response="000110000111" foes="100110000111" cont="0"/>
        <request index="5"  response="011110000110" foes="011110000110" cont="1"/>
        <request index="6"  response="000000000000" foes="010000000100" cont="0"/>
        <request index="7"  response="100000100000" foes="110000111100" cont="0"/>
        <request index="8"  response="100000100011" foes="110000110011" cont="1"/>
        <request index="9"  response="000000000010" foes="000000100010" cont="0"/>
        <request index="10" response="000111000110" foes="000111100110" cont="0"/>
        <request index="11" response="000110011110" foes="000110011110" cont="1"/>
    </junction>
    <junction id="gneJ2" type="dead_end" x="300.00" y="100.00" incLanes="e2_0" intLanes="" shape="300.00,100.00 300.00,96.80 300.00,100.00"/>
    <junction id="gneJ3" type="dead_end" x="100.00" y="200.00" incLanes="e3r_0" intLanes="" shape="100.00,200.00 103.20,200.00 100.00,200.00"/>
    <junction id="gneJ5" type="dead_end" x="100.00" y="0.00" incLanes="e4_0" intLanes="" shape="100.00,0.00 96.80,0.00 100.00,0.00"/>

    <junction id=":gneJ1_12_0" type="internal" x="100.00" y="101.60" incLanes=":gneJ1_2_0 e4r_0" intLanes=":gneJ1_4_0 :gneJ1_5_0 :gneJ1_6_0 :gneJ1_7_0 :gneJ1_10_0 :gneJ1_11_0"/>
    <junction id=":gneJ1_13_0" type="internal" x="101.60" y="100.00" incLanes=":gneJ1_5_0 e1_0" intLanes=":gneJ1_1_0 :gneJ1_2_0 :gneJ1_7_0 :gneJ1_8_0 :gneJ1_9_0 :gneJ1_10_0"/>
    <junction id=":gneJ1_14_0" type="internal" x="100.00" y="98.40" incLanes=":gneJ1_8_0 e3_0" intLanes=":gneJ1_0_0 :gneJ1_1_0 :gneJ1_4_0 :gneJ1_5_0 :gneJ1_10_0 :gneJ1_11_0"/>
    <junction id=":gneJ1_15_0" type="internal" x="98.40" y="100.00" incLanes=":gneJ1_11_0 e2r_0" intLanes=":gneJ1_1_0 :gneJ1_2_0 :gneJ1_3_0 :gneJ1_4_0 :gneJ1_7_0 :gneJ1_8_0"/>

    <connection from="e1" to="e4" fromLane="0" toLane="0" via=":gneJ1_9_0" tl="gneJ1" linkIndex="9" dir="r" state="o"/>
    <connection from="e1" to="e2" fromLane="0" toLane="0" via=":gneJ1_10_0" tl="gneJ1" linkIndex="10" dir="s" state="o"/>
    <connection from="e1" to="e3r" fromLane="0" toLane="0" via=":gneJ1_11_0" tl="gneJ1" linkIndex="11" dir="l" state="o"/>
    <connection from="e2r" to="e3r" fromLane="0" toLane="0" via=":gneJ1_3_0" tl="gneJ1" linkIndex="3" dir="r" state="o"/>
    <connection from="e2r" to="e1r" fromLane="0" toLane="0" via=":gneJ1_4_0" tl="gneJ1" linkIndex="4" dir="s" state="o"/>
    <connection from="e2r" to="e4" fromLane="0" toLane="0" via=":gneJ1_5_0" tl="gneJ1" linkIndex="5" dir="l" state="o"/>
    <connection from="e3" to="e1r" fromLane="0" toLane="0" via=":gneJ1_0_0" tl="gneJ1" linkIndex="0" dir="r" state="O"/>
    <connection from="e3" to="e4" fromLane="0" toLane="0" via=":gneJ1_1_0" tl="gneJ1" linkIndex="1" dir="s" state="O"/>
    <connection from="e3" to="e2" fromLane="0" toLane="0" via=":gneJ1_2_0" tl="gneJ1" linkIndex="2" dir="l" state="o"/>
    <connection from="e4r" to="e2" fromLane="0" toLane="0" via=":gneJ1_6_0" tl="gneJ1" linkIndex="6" dir="r" state="O"/>
    <connection from="e4r" to="e3r" fromLane="0" toLane="0" via=":gneJ1_7_0" tl="gneJ1" linkIndex="7" dir="s" state="O"/>
    <connection from="e4r" to="e1r" fromLane="0" toLane="0" via=":gneJ1_8_0" tl="gneJ1" linkIndex="8" dir="l" state="o"/>

    <connection from=":gneJ1_0" to="e1r" fromLane="0" toLane="0" dir="r" state="M"/>
    <connection from=":gneJ1_1" to="e4" fromLane="0" toLane="0" dir="s" state="M"/>
    <connection from=":gneJ1_2" to="e2" fromLane="0" toLane="0" via=":gneJ1_12_0" dir="l" state="m"/>
    <connection from=":gneJ1_12" to="e2" fromLane="0" toLane="0" dir="l" state="M"/>
    <connection from=":gneJ1_3" to="e3r" fromLane="0" toLane="0" dir="r" state="M"/>
    <connection from=":gneJ1_4" to="e1r" fromLane="0" toLane="0" dir="s" state="M"/>
    <connection from=":gneJ1_5" to="e4" fromLane="0" toLane="0" via=":gneJ1_13_0" dir="l" state="m"/>
    <connection from=":gneJ1_13" to="e4" fromLane="0" toLane="0" dir="l" state="M"/>
    <connection from=":gneJ1_6" to="e2" fromLane="0" toLane="0" dir="r" state="M"/>
    <connection from=":gneJ1_7" to="e3r" fromLane="0" toLane="0" dir="s" state="M"/>
    <connection from=":gneJ1_8" to="e1r" fromLane="0" toLane="0" via=":gneJ1_14_0" dir="l" state="m"/>
    <connection from=":gneJ1_14" to="e1r" fromLane="0" toLane="0" dir="l" state="M"/>
    <connection from=":gneJ1_9" to="e4" fromLane="0" toLane="0" dir="r" state="M"/>
    <connection from=":gneJ1_10" to="e2" fromLane="0" toLane="0" dir="s" state="M"/>
    <connection from=":gneJ1_11" to="e3r" fromLane="0" toLane="0" via=":gneJ1_15_0" dir="l" state="m"/>
    <connection from=":gneJ1_15" to="e3r" fromLane="0" toLane="0" dir="l" state="M"/>

</net>
