<?xml version="1.0" encoding="UTF-8"?>

<!-- generated on Mon Aug 31 19:45:44 2020 by Eclipse SUMO netedit Version 1.6.0
<configuration xmlns:xsi="http://www.w3.org/2001/XMLSchema-instance" xsi:noNamespaceSchemaLocation="http://sumo.dlr.de/xsd/netconvertConfiguration.xsd">

    <input>
        <sumo-net-file value="/Users/thiveshanpillay/Documents/2020/COS%20301/Capstone/GitHub_Lightbot/LightBot/lightbot_sim/scenarios/Jan_Shoba_Multi_Peak/Jan_Shoba_Multi_Peak.net.xml"/>
    </input>

    <output>
        <output-file value="/Users/thiveshanpillay/Documents/2020/COS%20301/Capstone/GitHub_Lightbot/LightBot/lightbot_sim/scenarios/Jan_Shoba_Multi_Peak/Jan_Shoba_Multi_Peak.net.xml"/>
        <output.street-names value="true"/>
    </output>

    <processing>
        <geometry.min-radius.fix.railways value="false"/>
        <geometry.max-grade.fix value="false"/>
        <offset.disable-normalization value="true"/>
        <lefthand value="true"/>
    </processing>

    <junctions>
        <no-turnarounds value="true"/>
        <junctions.corner-detail value="5"/>
        <junctions.limit-turn-speed value="5.5"/>
        <rectangular-lane-cut value="false"/>
    </junctions>

    <pedestrian>
        <walkingareas value="false"/>
    </pedestrian>

    <netedit>
        <route-files value="/Users/thiveshanpillay/Documents/2020/COS%20301/Capstone/GitHub_Lightbot/LightBot/lightbot_sim/scenarios/Jan_Shoba_Multi_Peak/Jan_Shoba_Multi_Peak.rou.xml"/>
    </netedit>

    <report>
        <aggregate-warnings value="5"/>
    </report>

</configuration>
-->

<routes xmlns:xsi="http://www.w3.org/2001/XMLSchema-instance" xsi:noNamespaceSchemaLocation="http://sumo.dlr.de/xsd/routes_file.xsd">
    <route edges="rd1_JanShoba_dl_n rd2_JanShoba_tl_n rd3_JanShoba_dl_N rd4_JanShoba_ql_n rd3_Duxbury_sl_e rd4_Duxbury_sl_e" color="magenta" id="route_JanShoba_n_Duxbury_e"/>
    <route edges="rd1_JanShoba_dl_n rd2_JanShoba_tl_n rd3_JanShoba_dl_N rd4_JanShoba_ql_n rd2_Duxbury_sl_w rd3_Duxbury_sl_w" color="green" id="route_JanShoba_n_Duxbury_w"/>
    <route edges="rd1_JanShoba_dl_n rd2_JanShoba_tl_n rd3_JanShoba_dl_N rd4_JanShoba_ql_n rd5_JanShoba_dl_n rd6_JanShoba_tl_n rd7_JanShoba_dl_n rd8_JanShoba_dl_n" color="blue" id="route_JanShoba_n_JanShoba_n"/>
    <route edges="rd1_JanShoba_dl_n rd2_JanShoba_tl_n rd2_Lunnon_sl_e rd3_Lunnon_sl_e" color="magenta" id="route_JanShoba_n_Lunnon_e"/>
    <route edges="rd1_JanShoba_dl_n rd2_JanShoba_tl_n rd2_Lunnon_sl_w" color="green" id="route_JanShoba_n_Lunnon_w"/>
    <route edges="rd1_JanShoba_dl_n rd2_JanShoba_tl_n rd3_JanShoba_dl_N rd4_JanShoba_ql_n rd5_JanShoba_dl_n rd6_JanShoba_tl_n rd7_JanShoba_dl_n rd2_Prospect_sl_w" color="green" id="route_JanShoba_n_Prospect_w"/>
    <route edges="rd1_JanShoba_dl_n rd2_JanShoba_tl_n rd3_JanShoba_dl_N rd4_JanShoba_ql_n rd5_JanShoba_dl_n rd6_JanShoba_tl_n rd2_South_sl_e rd4_South_sl_e" color="magenta" id="route_JanShoba_n_South_e"/>
    <route edges="rd1_JanShoba_dl_n rd2_JanShoba_tl_n rd3_JanShoba_dl_N rd4_JanShoba_ql_n rd5_JanShoba_dl_n rd6_JanShoba_tl_n rd3_South_sl_w" color="green" id="route_JanShoba_n_South_w"/>

    <route edges="rd1_JanShoba_dl_s rd2_JanShoba_dl_s rd3_JanShoba_tl_s rd4_JanShoba_dl_s rd5_JanShoba_tl_s rd7_JanShoba_sl_s rd4_Duxbury_sl_e" color="green" id="route_JanShoba_s_Duxbury_e"/>
    <route edges="rd1_JanShoba_dl_s rd2_JanShoba_dl_s rd3_JanShoba_tl_s rd4_JanShoba_dl_s rd5_JanShoba_tl_s rd6_JanShoba_tl_s rd2_Duxbury_sl_w rd3_Duxbury_sl_w" color="magenta" id="route_JanShoba_s_Duxbury_w"/>
    <route edges="rd1_JanShoba_dl_s rd2_JanShoba_dl_s rd3_JanShoba_tl_s rd4_JanShoba_dl_s rd5_JanShoba_tl_s rd6_JanShoba_tl_s rd7_JanShoba_dl_s rd8_JanShoba_tl_s rd9_JanShoba_dl_s" color="blue" id="route_JanShoba_s_JanShoba_s"/>
    <route edges="rd1_JanShoba_dl_s rd2_JanShoba_dl_s rd3_JanShoba_tl_s rd4_JanShoba_dl_s rd5_JanShoba_tl_s rd6_JanShoba_tl_s rd7_JanShoba_dl_s rd9_JanShoba_sl_s rd3_Lunnon_sl_e" color="green" id="route_JanShoba_s_Lunnon_e"/>
    <route edges="rd1_JanShoba_dl_s rd2_JanShoba_dl_s rd3_JanShoba_tl_s rd4_JanShoba_dl_s rd5_JanShoba_tl_s rd6_JanShoba_tl_s rd7_JanShoba_dl_s rd8_JanShoba_tl_s rd2_Lunnon_sl_w" color="magenta" id="route_JanShoba_s_Lunnon_w"/>
    <route edges="rd1_JanShoba_dl_s rd2_Prospect_sl_e" color="green" id="route_JanShoba_s_Prospect_e"/>
    <route edges="rd1_JanShoba_dl_s rd2_JanShoba_dl_s rd3_JanShoba_tl_s rd2_South_sl_e rd4_South_sl_e" color="green" id="route_JanShoba_s_South_e"/>
    <route edges="rd1_JanShoba_dl_s rd2_JanShoba_dl_s rd3_JanShoba_tl_s rd3_South_sl_w" color="magenta" id="route_JanShoba_s_South_w"/>

    <route edges="rd1_Prospect_sl_e rd8_JanShoba_dl_n" color="green" id="route_Prospect_e_JanShoba_n"/>

    <route edges="rd1_Prospect_sl_w rd2_JanShoba_dl_s rd3_JanShoba_tl_s rd4_JanShoba_dl_s rd5_JanShoba_tl_s rd7_JanShoba_sl_s rd4_Duxbury_sl_e" color="green" id="route_Prospect_w_Duxbury_e"/>
    <route edges="rd1_Prospect_sl_w rd2_JanShoba_dl_s rd3_JanShoba_tl_s rd4_JanShoba_dl_s rd5_JanShoba_tl_s rd6_JanShoba_tl_s rd2_Duxbury_sl_w rd3_Duxbury_sl_w" color="magenta" id="route_Prospect_w_Duxbury_w"/>
    <route edges="rd1_Prospect_sl_w rd2_JanShoba_dl_s rd3_JanShoba_tl_s rd4_JanShoba_dl_s rd5_JanShoba_tl_s rd6_JanShoba_tl_s rd7_JanShoba_dl_s rd8_JanShoba_tl_s rd9_JanShoba_dl_s" color="green" id="route_Prospect_w_JanShoba_s"/>
    <route edges="rd1_Prospect_sl_w rd2_JanShoba_dl_s rd3_JanShoba_tl_s rd4_JanShoba_dl_s rd5_JanShoba_tl_s rd6_JanShoba_tl_s rd7_JanShoba_dl_s rd9_JanShoba_sl_s rd3_Lunnon_sl_e" color="green" id="route_Prospect_w_Lunnon_e"/>
    <route edges="rd1_Prospect_sl_w rd2_JanShoba_dl_s rd3_JanShoba_tl_s rd4_JanShoba_dl_s rd5_JanShoba_tl_s rd6_JanShoba_tl_s rd7_JanShoba_dl_s rd8_JanShoba_tl_s rd2_Lunnon_sl_w" color="magenta" id="route_Prospect_w_Lunnon_w"/>
    <route edges="rd1_Prospect_sl_w rd2_JanShoba_dl_s rd3_JanShoba_tl_s rd2_South_sl_e rd4_South_sl_e" color="green" id="route_Prospect_w_South_e"/>
    <route edges="rd1_Prospect_sl_w rd2_JanShoba_dl_s rd3_JanShoba_tl_s rd3_South_sl_w" color="magenta" id="route_Prospect_w_South_w"/>

    <route edges="rd1_South_sl_e rd2_South_dl_e rd7_JanShoba_dl_n rd8_JanShoba_dl_n" color="green" id="route_South_e_JanShoba_n"/>
    <route edges="rd1_South_sl_e rd2_South_dl_e rd7_JanShoba_dl_n rd2_Prospect_sl_w" color="green" id="route_South_e_Prospect_w"/>
    <route edges="rd1_South_sl_e rd2_South_dl_e rd2_South_sl_e rd4_South_sl_e" color="blue" id="route_South_e_South_e"/>
    <route edges="rd1_South_sl_e rd2_South_dl_e rd4_JanShoba_dl_s rd5_JanShoba_tl_s rd6_JanShoba_tl_s rd7_JanShoba_dl_s rd8_JanShoba_tl_s rd9_JanShoba_dl_s" color="magenta" id="route_South_e_JanShoba_s"/>
    <route edges="rd1_South_sl_e rd2_South_dl_e rd4_JanShoba_dl_s rd5_JanShoba_tl_s rd6_JanShoba_tl_s rd2_Duxbury_sl_w rd3_Duxbury_sl_w" color="green" id="route_South_e_Duxbury_w"/>
    <route edges="rd1_South_sl_e rd2_South_dl_e rd4_JanShoba_dl_s rd5_JanShoba_tl_s rd7_JanShoba_sl_s rd4_Duxbury_sl_e" color="magenta" id="route_South_e_Duxbury_e"/>
    <route edges="rd1_South_sl_e rd2_South_dl_e rd4_JanShoba_dl_s rd5_JanShoba_tl_s rd6_JanShoba_tl_s rd7_JanShoba_dl_s rd8_JanShoba_tl_s rd2_Lunnon_sl_w" color="green" id="route_South_e_Lunnon_w"/>
    <route edges="rd1_South_sl_e rd2_South_dl_e rd4_JanShoba_dl_s rd5_JanShoba_tl_s rd6_JanShoba_tl_s rd7_JanShoba_dl_s rd9_JanShoba_sl_s rd3_Lunnon_sl_e" color="magenta" id="route_South_e_Lunnon_e"/>

    <route edges="rd1_South_sl_w rd2_South_dl_w rd7_JanShoba_dl_n rd8_JanShoba_dl_n" color="magenta" id="route_South_w_JanShoba_n"/>
    <route edges="rd1_South_sl_w rd2_South_dl_w rd4_JanShoba_dl_s rd5_JanShoba_tl_s rd6_JanShoba_tl_s rd7_JanShoba_dl_s rd8_JanShoba_tl_s rd9_JanShoba_dl_s" color="green" id="route_South_w_JanShoba_s"/>
    <route edges="rd1_South_sl_w rd2_South_dl_w rd7_JanShoba_dl_n rd2_Prospect_sl_w" color="magenta" id="route_South_w_Prospect_w"/>
    <route edges="rd1_South_sl_w rd2_South_dl_w rd3_South_sl_w" color="blue" id="route_South_w_South_w"/>
    <route edges="rd1_South_sl_w rd2_South_dl_w rd4_JanShoba_dl_s rd5_JanShoba_tl_s rd6_JanShoba_tl_s rd2_Duxbury_sl_w rd3_Duxbury_sl_w" color="magenta" id="route_South_w_Duxbury_w"/>
    <route edges="rd1_South_sl_w rd2_South_dl_w rd4_JanShoba_dl_s rd5_JanShoba_tl_s rd7_JanShoba_sl_s rd4_Duxbury_sl_e" color="green" id="route_South_w_Duxbury_e"/>
    <route edges="rd1_South_sl_w rd2_South_dl_w rd4_JanShoba_dl_s rd5_JanShoba_tl_s rd6_JanShoba_tl_s rd7_JanShoba_dl_s rd8_JanShoba_tl_s rd2_Lunnon_sl_w" color="magenta" id="route_South_w_Lunnon_w"/>
    <route edges="rd1_South_sl_w rd2_South_dl_w rd4_JanShoba_dl_s rd5_JanShoba_tl_s rd6_JanShoba_tl_s rd7_JanShoba_dl_s rd9_JanShoba_sl_s rd3_Lunnon_sl_e" color="green" id="route_South_w_Lunnon_e"/>

    <route edges="rd1_Duxbury_sl_e rd2_Duxbury_dl_e rd7_JanShoba_dl_s rd8_JanShoba_tl_s rd9_JanShoba_dl_s" color="magenta" id="route_Duxbury_e_JanShoba_s"/>
    <route edges="rd1_Duxbury_sl_e rd2_Duxbury_dl_e rd5_JanShoba_dl_n rd6_JanShoba_tl_n rd7_JanShoba_dl_n rd8_JanShoba_dl_n" color="green" id="route_Duxbury_e_JanShoba_n"/>
    <route edges="rd1_Duxbury_sl_e rd2_Duxbury_dl_e rd5_JanShoba_dl_n rd6_JanShoba_tl_n rd7_JanShoba_dl_n rd2_Prospect_sl_w" color="green" id="route_Duxbury_e_Prospect_w"/>
    <route edges="rd1_Duxbury_sl_e rd2_Duxbury_dl_e rd5_JanShoba_dl_n rd6_JanShoba_tl_n rd3_South_sl_w" color="green" id="route_Duxbury_e_South_w"/>
    <route edges="rd1_Duxbury_sl_e rd2_Duxbury_dl_e rd5_JanShoba_dl_n rd6_JanShoba_tl_n rd2_South_sl_e rd4_South_sl_e" color="magenta" id="route_Duxbury_e_South_e"/>
    <route edges="rd1_Duxbury_sl_e rd2_Duxbury_dl_e rd3_Duxbury_sl_e rd4_Duxbury_sl_e" color="blue" id="route_Duxbury_e_Duxbury_e"/>
    <route edges="rd1_Duxbury_sl_e rd2_Duxbury_dl_e rd7_JanShoba_dl_s rd8_JanShoba_tl_s rd2_Lunnon_sl_w" color="green" id="route_Duxbury_e_Lunnon_w"/>
    <route edges="rd1_Duxbury_sl_e rd2_Duxbury_dl_e rd7_JanShoba_dl_s rd9_JanShoba_sl_s rd3_Lunnon_sl_e" color="magenta" id="route_Duxbury_e_Lunnon_e"/>

    <route edges="rd0_Duxbury_dl_w rd1_Duxbury_ql_w rd7_JanShoba_dl_s rd8_JanShoba_tl_s rd9_JanShoba_dl_s" color="green" id="route_Duxbury_w_JanShoba_s"/>
    <route edges="rd0_Duxbury_dl_w rd1_Duxbury_ql_w rd5_JanShoba_dl_n rd6_JanShoba_tl_n rd7_JanShoba_dl_n rd8_JanShoba_dl_n" color="magenta" id="route_Duxbury_w_JanShoba_n"/>
    <route edges="rd0_Duxbury_dl_w rd1_Duxbury_ql_w rd5_JanShoba_dl_n rd6_JanShoba_tl_n rd7_JanShoba_dl_n rd2_Prospect_sl_w" color="magenta" id="route_Duxbury_w_Prospect_w"/>
    <route edges="rd0_Duxbury_dl_w rd1_Duxbury_ql_w rd5_JanShoba_dl_n rd6_JanShoba_tl_n rd3_South_sl_w" color="magenta" id="route_Duxbury_w_South_w"/>
    <route edges="rd0_Duxbury_dl_w rd1_Duxbury_ql_w rd5_JanShoba_dl_n rd6_JanShoba_tl_n rd2_South_sl_e rd4_South_sl_e" color="green" id="route_Duxbury_w_South_e"/>
    <route edges="rd0_Duxbury_dl_w rd1_Duxbury_ql_w rd2_Duxbury_sl_w rd3_Duxbury_sl_w" color="blue" id="route_Duxbury_w_Duxbury_w"/>
    <route edges="rd0_Duxbury_dl_w rd1_Duxbury_ql_w rd7_JanShoba_dl_s rd8_JanShoba_tl_s rd2_Lunnon_sl_w" color="magenta" id="route_Duxbury_w_Lunnon_w"/>
    <route edges="rd0_Duxbury_dl_w rd1_Duxbury_ql_w rd7_JanShoba_dl_s rd9_JanShoba_sl_s rd3_Lunnon_sl_e" color="green" id="route_Duxbury_w_Lunnon_e"/>

    <route edges="rd1_Lunnon_sl_e rd3_JanShoba_dl_N rd4_JanShoba_ql_n rd5_JanShoba_dl_n rd6_JanShoba_tl_n rd7_JanShoba_dl_n rd8_JanShoba_dl_n" color="green" id="route_Lunnon_e_JanShoba_n"/>
    <route edges="rd1_Lunnon_sl_e rd3_JanShoba_dl_N rd4_JanShoba_ql_n rd5_JanShoba_dl_n rd6_JanShoba_tl_n rd7_JanShoba_dl_n rd2_Prospect_sl_w" color="green" id="route_Lunnon_e_Prospect_w"/>
    <route edges="rd1_Lunnon_sl_e rd3_JanShoba_dl_N rd4_JanShoba_ql_n rd5_JanShoba_dl_n rd6_JanShoba_tl_n rd3_South_sl_w" color="green" id="route_Lunnon_e_South_w"/>
    <route edges="rd1_Lunnon_sl_e rd3_JanShoba_dl_N rd4_JanShoba_ql_n rd5_JanShoba_dl_n rd6_JanShoba_tl_n rd2_South_sl_e rd4_South_sl_e" color="magenta" id="route_Lunnon_e_South_e"/>
    <route edges="rd1_Lunnon_sl_e rd3_JanShoba_dl_N rd4_JanShoba_ql_n rd2_Duxbury_sl_w rd3_Duxbury_sl_w" color="green" id="route_Lunnon_e_Duxbury_w"/>
    <route edges="rd1_Lunnon_sl_e rd3_JanShoba_dl_N rd4_JanShoba_ql_n rd3_Duxbury_sl_e rd4_Duxbury_sl_e" color="magenta" id="route_Lunnon_e_Duxbury_e"/>

    <route edges="rd1_Lunnon_sl_w rd10_JanShoba_sl_s" color="green" id="route_Lunnon_w_JanShoba_s"/>

    <vType accel="1.0" decel="4.5" id="standard_car" length="5.0" minGap="2.5" maxSpeed="25" sigma="0.5" />
     <vehicle id="j_s_j_s_0" type="standard_car" route="route_JanShoba_s_JanShoba_s" depart="16.0" departLane="random" departSpeed="10" />
     <vehicle id="l_e_s_e_1" type="standard_car" route="route_Lunnon_e_South_e" depart="36.0" departLane="random" departSpeed="10" />
     <vehicle id="s_w_s_w_2" type="standard_car" route="route_South_w_South_w" depart="55.0" departLane="random" departSpeed="10" />
     <vehicle id="j_s_l_w_3" type="standard_car" route="route_JanShoba_s_Lunnon_w" depart="76.0" departLane="random" departSpeed="10" />
     <vehicle id="s_w_s_w_4" type="standard_car" route="route_South_w_South_w" depart="77.0" departLane="random" departSpeed="10" />
     <vehicle id="j_s_j_s_5" type="standard_car" route="route_JanShoba_s_JanShoba_s" depart="87.0" departLane="random" departSpeed="10" />
     <vehicle id="d_e_d_e_6" type="standard_car" route="route_Duxbury_e_Duxbury_e" depart="98.0" departLane="random" departSpeed="10" />
     <vehicle id="j_n_j_n_7" type="standard_car" route="route_JanShoba_n_JanShoba_n" depart="106.0" departLane="random" departSpeed="10" />
     <vehicle id="j_s_j_s_8" type="standard_car" route="route_JanShoba_s_JanShoba_s" depart="108.0" departLane="random" departSpeed="10" />
     <vehicle id="s_e_s_e_9" type="standard_car" route="route_South_e_South_e" depart="117.0" departLane="random" departSpeed="10" />
     <vehicle id="s_w_s_w_10" type="standard_car" route="route_South_w_South_w" depart="118.0" departLane="random" departSpeed="10" />
     <vehicle id="s_e_s_e_11" type="standard_car" route="route_South_e_South_e" depart="126.0" departLane="random" departSpeed="10" />
     <vehicle id="d_e_d_e_12" type="standard_car" route="route_Duxbury_e_Duxbury_e" depart="147.0" departLane="random" departSpeed="10" />
     <vehicle id="d_e_d_e_13" type="standard_car" route="route_Duxbury_e_Duxbury_e" depart="148.0" departLane="random" departSpeed="10" />
     <vehicle id="d_w_d_w_14" type="standard_car" route="route_Duxbury_w_Duxbury_w" depart="150.0" departLane="random" departSpeed="10" />
     <vehicle id="d_e_d_e_15" type="standard_car" route="route_Duxbury_e_Duxbury_e" depart="155.0" departLane="random" departSpeed="10" />
     <vehicle id="p_w_j_s_16" type="standard_car" route="route_Prospect_w_JanShoba_s" depart="157.0" departLane="random" departSpeed="10" />
     <vehicle id="d_w_d_w_17" type="standard_car" route="route_Duxbury_w_Duxbury_w" depart="165.0" departLane="random" departSpeed="10" />
     <vehicle id="d_e_d_e_18" type="standard_car" route="route_Duxbury_e_Duxbury_e" depart="171.0" departLane="random" departSpeed="10" />
     <vehicle id="j_n_l_w_19" type="standard_car" route="route_JanShoba_n_Lunnon_w" depart="189.0" departLane="random" departSpeed="10" />
     <vehicle id="d_e_d_e_20" type="standard_car" route="route_Duxbury_e_Duxbury_e" depart="191.0" departLane="random" departSpeed="10" />
     <vehicle id="s_w_s_w_21" type="standard_car" route="route_South_w_South_w" depart="208.0" departLane="random" departSpeed="10" />
     <vehicle id="j_n_j_n_22" type="standard_car" route="route_JanShoba_n_JanShoba_n" depart="212.0" departLane="random" departSpeed="10" />
     <vehicle id="s_e_s_e_23" type="standard_car" route="route_South_e_South_e" depart="212.0" departLane="random" departSpeed="10" />
     <vehicle id="j_s_j_s_24" type="standard_car" route="route_JanShoba_s_JanShoba_s" depart="215.0" departLane="random" departSpeed="10" />
     <vehicle id="j_n_j_n_25" type="standard_car" route="route_JanShoba_n_JanShoba_n" depart="221.0" departLane="random" departSpeed="10" />
     <vehicle id="p_w_d_e_26" type="standard_car" route="route_Prospect_w_Duxbury_e" depart="223.0" departLane="random" departSpeed="10" />
     <vehicle id="s_e_s_e_27" type="standard_car" route="route_South_e_South_e" depart="240.0" departLane="random" departSpeed="10" />
     <vehicle id="s_e_s_e_28" type="standard_car" route="route_South_e_South_e" depart="243.0" departLane="random" departSpeed="10" />
     <vehicle id="s_e_s_e_29" type="standard_car" route="route_South_e_South_e" depart="245.0" departLane="random" departSpeed="10" />
     <vehicle id="j_s_j_s_30" type="standard_car" route="route_JanShoba_s_JanShoba_s" depart="248.0" departLane="random" departSpeed="10" />
     <vehicle id="s_w_l_w_31" type="standard_car" route="route_South_w_Lunnon_w" depart="251.0" departLane="random" departSpeed="10" />
     <vehicle id="d_w_d_w_32" type="standard_car" route="route_Duxbury_w_Duxbury_w" depart="256.0" departLane="random" departSpeed="10" />
     <vehicle id="j_s_j_s_33" type="standard_car" route="route_JanShoba_s_JanShoba_s" depart="265.0" departLane="random" departSpeed="10" />
     <vehicle id="j_s_j_s_34" type="standard_car" route="route_JanShoba_s_JanShoba_s" depart="269.0" departLane="random" departSpeed="10" />
     <vehicle id="d_e_d_e_35" type="standard_car" route="route_Duxbury_e_Duxbury_e" depart="280.0" departLane="random" departSpeed="10" />
     <vehicle id="d_e_d_e_36" type="standard_car" route="route_Duxbury_e_Duxbury_e" depart="283.0" departLane="random" departSpeed="10" />
     <vehicle id="j_s_j_s_37" type="standard_car" route="route_JanShoba_s_JanShoba_s" depart="294.0" departLane="random" departSpeed="10" />
     <vehicle id="s_w_s_w_38" type="standard_car" route="route_South_w_South_w" depart="296.0" departLane="random" departSpeed="10" />
     <vehicle id="s_w_s_w_39" type="standard_car" route="route_South_w_South_w" depart="299.0" departLane="random" departSpeed="10" />
     <vehicle id="s_w_p_w_40" type="standard_car" route="route_South_w_Prospect_w" depart="304.0" departLane="random" departSpeed="10" />
     <vehicle id="j_n_j_n_41" type="standard_car" route="route_JanShoba_n_JanShoba_n" depart="320.0" departLane="random" departSpeed="10" />
     <vehicle id="s_w_s_w_42" type="standard_car" route="route_South_w_South_w" depart="324.0" departLane="random" departSpeed="10" />
     <vehicle id="j_n_j_n_43" type="standard_car" route="route_JanShoba_n_JanShoba_n" depart="327.0" departLane="random" departSpeed="10" />
     <vehicle id="d_e_d_e_44" type="standard_car" route="route_Duxbury_e_Duxbury_e" depart="332.0" departLane="random" departSpeed="10" />
     <vehicle id="j_s_s_w_45" type="standard_car" route="route_JanShoba_s_South_w" depart="349.0" departLane="random" departSpeed="10" />
     <vehicle id="d_w_d_w_46" type="standard_car" route="route_Duxbury_w_Duxbury_w" depart="367.0" departLane="random" departSpeed="10" />
     <vehicle id="s_w_s_w_47" type="standard_car" route="route_South_w_South_w" depart="387.0" departLane="random" departSpeed="10" />
     <vehicle id="p_w_l_e_48" type="standard_car" route="route_Prospect_w_Lunnon_e" depart="395.0" departLane="random" departSpeed="10" />
     <vehicle id="d_w_d_w_49" type="standard_car" route="route_Duxbury_w_Duxbury_w" depart="438.0" departLane="random" departSpeed="10" />
</routes>


    <vType accel="1.0" decel="4.5" id="standard_car" length="5.0" minGap="2.5" maxSpeed="25" sigma="0.5" />
     <vehicle id="j_s_j_s_0" type="standard_car" route="route_JanShoba_s_JanShoba_s" depart="21.0" departLane="random" departSpeed="10" />
     <vehicle id="s_w_l_w_1" type="standard_car" route="route_South_w_Lunnon_w" depart="48.0" departLane="random" departSpeed="10" />
     <vehicle id="d_w_d_w_2" type="standard_car" route="route_Duxbury_w_Duxbury_w" depart="53.0" departLane="random" departSpeed="10" />
     <vehicle id="j_s_j_s_3" type="standard_car" route="route_JanShoba_s_JanShoba_s" depart="67.0" departLane="random" departSpeed="10" />
     <vehicle id="j_s_j_s_4" type="standard_car" route="route_JanShoba_s_JanShoba_s" depart="67.0" departLane="random" departSpeed="10" />
     <vehicle id="d_e_d_e_5" type="standard_car" route="route_Duxbury_e_Duxbury_e" depart="70.0" departLane="random" departSpeed="10" />
     <vehicle id="d_e_d_e_6" type="standard_car" route="route_Duxbury_e_Duxbury_e" depart="73.0" departLane="random" departSpeed="10" />
     <vehicle id="j_s_j_s_7" type="standard_car" route="route_JanShoba_s_JanShoba_s" depart="86.0" departLane="random" departSpeed="10" />
     <vehicle id="s_w_s_w_8" type="standard_car" route="route_South_w_South_w" depart="96.0" departLane="random" departSpeed="10" />
     <vehicle id="s_w_s_w_9" type="standard_car" route="route_South_w_South_w" depart="101.0" departLane="random" departSpeed="10" />
     <vehicle id="s_w_p_w_10" type="standard_car" route="route_South_w_Prospect_w" depart="103.0" departLane="random" departSpeed="10" />
     <vehicle id="j_n_j_n_11" type="standard_car" route="route_JanShoba_n_JanShoba_n" depart="104.0" departLane="random" departSpeed="10" />
     <vehicle id="s_w_s_w_12" type="standard_car" route="route_South_w_South_w" depart="116.0" departLane="random" departSpeed="10" />
     <vehicle id="j_n_j_n_13" type="standard_car" route="route_JanShoba_n_JanShoba_n" depart="131.0" departLane="random" departSpeed="10" />
     <vehicle id="d_e_d_e_14" type="standard_car" route="route_Duxbury_e_Duxbury_e" depart="135.0" departLane="random" departSpeed="10" />
     <vehicle id="j_s_s_w_15" type="standard_car" route="route_JanShoba_s_South_w" depart="142.0" departLane="random" departSpeed="10" />
     <vehicle id="d_w_d_w_16" type="standard_car" route="route_Duxbury_w_Duxbury_w" depart="143.0" departLane="random" departSpeed="10" />
     <vehicle id="s_w_s_w_17" type="standard_car" route="route_South_w_South_w" depart="157.0" departLane="random" departSpeed="10" />
     <vehicle id="p_w_l_e_18" type="standard_car" route="route_Prospect_w_Lunnon_e" depart="157.0" departLane="random" departSpeed="10" />
     <vehicle id="d_w_d_w_19" type="standard_car" route="route_Duxbury_w_Duxbury_w" depart="168.0" departLane="random" departSpeed="10" />
     <vehicle id="p_w_l_w_20" type="standard_car" route="route_Prospect_w_Lunnon_w" depart="175.0" departLane="random" departSpeed="10" />
     <vehicle id="d_w_d_w_21" type="standard_car" route="route_Duxbury_w_Duxbury_w" depart="179.0" departLane="random" departSpeed="10" />
     <vehicle id="j_s_j_s_22" type="standard_car" route="route_JanShoba_s_JanShoba_s" depart="184.0" departLane="random" departSpeed="10" />
     <vehicle id="j_n_j_n_23" type="standard_car" route="route_JanShoba_n_JanShoba_n" depart="196.0" departLane="random" departSpeed="10" />
     <vehicle id="p_w_s_w_24" type="standard_car" route="route_Prospect_w_South_w" depart="196.0" departLane="random" departSpeed="10" />
     <vehicle id="s_e_j_s_25" type="standard_car" route="route_South_e_JanShoba_s" depart="197.0" departLane="random" departSpeed="10" />
     <vehicle id="l_e_j_n_26" type="standard_car" route="route_Lunnon_e_JanShoba_n" depart="199.0" departLane="random" departSpeed="10" />
     <vehicle id="s_w_s_w_27" type="standard_car" route="route_South_w_South_w" depart="199.0" departLane="random" departSpeed="10" />
     <vehicle id="j_n_j_n_28" type="standard_car" route="route_JanShoba_n_JanShoba_n" depart="200.0" departLane="random" departSpeed="10" />
     <vehicle id="j_s_j_s_29" type="standard_car" route="route_JanShoba_s_JanShoba_s" depart="201.0" departLane="random" departSpeed="10" />
     <vehicle id="j_n_p_w_30" type="standard_car" route="route_JanShoba_n_Prospect_w" depart="205.0" departLane="random" departSpeed="10" />
     <vehicle id="s_w_s_w_31" type="standard_car" route="route_South_w_South_w" depart="206.0" departLane="random" departSpeed="10" />
     <vehicle id="s_w_d_e_32" type="standard_car" route="route_South_w_Duxbury_e" depart="207.0" departLane="random" departSpeed="10" />
     <vehicle id="s_w_s_w_33" type="standard_car" route="route_South_w_South_w" depart="209.0" departLane="random" departSpeed="10" />
     <vehicle id="j_n_j_n_34" type="standard_car" route="route_JanShoba_n_JanShoba_n" depart="211.0" departLane="random" departSpeed="10" />
     <vehicle id="d_w_d_w_35" type="standard_car" route="route_Duxbury_w_Duxbury_w" depart="215.0" departLane="random" departSpeed="10" />
     <vehicle id="j_s_s_w_36" type="standard_car" route="route_JanShoba_s_South_w" depart="217.0" departLane="random" departSpeed="10" />
     <vehicle id="s_e_s_e_37" type="standard_car" route="route_South_e_South_e" depart="219.0" departLane="random" departSpeed="10" />
     <vehicle id="j_s_j_s_38" type="standard_car" route="route_JanShoba_s_JanShoba_s" depart="222.0" departLane="random" departSpeed="10" />
     <vehicle id="s_w_s_w_39" type="standard_car" route="route_South_w_South_w" depart="228.0" departLane="random" departSpeed="10" />
     <vehicle id="p_e_j_n_40" type="standard_car" route="route_Prospect_e_JanShoba_n" depart="232.0" departLane="random" departSpeed="10" />
     <vehicle id="s_w_s_w_41" type="standard_car" route="route_South_w_South_w" depart="235.0" departLane="random" departSpeed="10" />
     <vehicle id="s_e_d_w_42" type="standard_car" route="route_South_e_Duxbury_w" depart="245.0" departLane="random" departSpeed="10" />
     <vehicle id="s_e_s_e_43" type="standard_car" route="route_South_e_South_e" depart="250.0" departLane="random" departSpeed="10" />
     <vehicle id="s_w_s_w_44" type="standard_car" route="route_South_w_South_w" depart="251.0" departLane="random" departSpeed="10" />
     <vehicle id="p_e_j_n_45" type="standard_car" route="route_Prospect_e_JanShoba_n" depart="254.0" departLane="random" departSpeed="10" />
     <vehicle id="d_w_d_w_46" type="standard_car" route="route_Duxbury_w_Duxbury_w" depart="255.0" departLane="random" departSpeed="10" />
     <vehicle id="s_e_s_e_47" type="standard_car" route="route_South_e_South_e" depart="260.0" departLane="random" departSpeed="10" />
     <vehicle id="s_e_s_e_48" type="standard_car" route="route_South_e_South_e" depart="268.0" departLane="random" departSpeed="10" />
     <vehicle id="j_n_j_n_49" type="standard_car" route="route_JanShoba_n_JanShoba_n" depart="276.0" departLane="random" departSpeed="10" />
     <vehicle id="d_w_d_w_50" type="standard_car" route="route_Duxbury_w_Duxbury_w" depart="277.0" departLane="random" departSpeed="10" />
     <vehicle id="d_e_d_e_51" type="standard_car" route="route_Duxbury_e_Duxbury_e" depart="282.0" departLane="random" departSpeed="10" />
     <vehicle id="s_w_s_w_52" type="standard_car" route="route_South_w_South_w" depart="283.0" departLane="random" departSpeed="10" />
     <vehicle id="j_s_j_s_53" type="standard_car" route="route_JanShoba_s_JanShoba_s" depart="283.0" departLane="random" departSpeed="10" />
     <vehicle id="j_n_j_n_54" type="standard_car" route="route_JanShoba_n_JanShoba_n" depart="285.0" departLane="random" departSpeed="10" />
     <vehicle id="l_w_j_s_55" type="standard_car" route="route_Lunnon_w_JanShoba_s" depart="286.0" departLane="random" departSpeed="10" />
     <vehicle id="s_w_s_w_56" type="standard_car" route="route_South_w_South_w" depart="292.0" departLane="random" departSpeed="10" />
     <vehicle id="s_e_l_e_57" type="standard_car" route="route_South_e_Lunnon_e" depart="295.0" departLane="random" departSpeed="10" />
     <vehicle id="d_e_j_n_58" type="standard_car" route="route_Duxbury_e_JanShoba_n" depart="297.0" departLane="random" departSpeed="10" />
     <vehicle id="s_w_s_w_59" type="standard_car" route="route_South_w_South_w" depart="301.0" departLane="random" departSpeed="10" />
     <vehicle id="j_n_l_w_60" type="standard_car" route="route_JanShoba_n_Lunnon_w" depart="304.0" departLane="random" departSpeed="10" />
     <vehicle id="d_w_d_w_61" type="standard_car" route="route_Duxbury_w_Duxbury_w" depart="315.0" departLane="random" departSpeed="10" />
     <vehicle id="d_e_d_e_62" type="standard_car" route="route_Duxbury_e_Duxbury_e" depart="318.0" departLane="random" departSpeed="10" />
     <vehicle id="d_w_j_n_63" type="standard_car" route="route_Duxbury_w_JanShoba_n" depart="318.0" departLane="random" departSpeed="10" />
     <vehicle id="s_w_s_w_64" type="standard_car" route="route_South_w_South_w" depart="320.0" departLane="random" departSpeed="10" />
     <vehicle id="j_n_j_n_65" type="standard_car" route="route_JanShoba_n_JanShoba_n" depart="322.0" departLane="random" departSpeed="10" />
     <vehicle id="j_s_j_s_66" type="standard_car" route="route_JanShoba_s_JanShoba_s" depart="325.0" departLane="random" departSpeed="10" />
     <vehicle id="d_e_d_e_67" type="standard_car" route="route_Duxbury_e_Duxbury_e" depart="327.0" departLane="random" departSpeed="10" />
     <vehicle id="j_n_d_e_68" type="standard_car" route="route_JanShoba_n_Duxbury_e" depart="331.0" departLane="random" departSpeed="10" />
     <vehicle id="s_w_s_w_69" type="standard_car" route="route_South_w_South_w" depart="334.0" departLane="random" departSpeed="10" />
     <vehicle id="j_n_j_n_70" type="standard_car" route="route_JanShoba_n_JanShoba_n" depart="335.0" departLane="random" departSpeed="10" />
     <vehicle id="s_e_s_e_71" type="standard_car" route="route_South_e_South_e" depart="342.0" departLane="random" departSpeed="10" />
     <vehicle id="d_e_d_e_72" type="standard_car" route="route_Duxbury_e_Duxbury_e" depart="353.0" departLane="random" departSpeed="10" />
     <vehicle id="s_e_s_e_73" type="standard_car" route="route_South_e_South_e" depart="358.0" departLane="random" departSpeed="10" />
     <vehicle id="d_e_d_e_74" type="standard_car" route="route_Duxbury_e_Duxbury_e" depart="373.0" departLane="random" departSpeed="10" />