<?xml version="1.0" encoding="UTF-8"?>

<configuration xmlns:xsi="http://www.w3.org/2001/XMLSchema-instance" xsi:noNamespaceSchemaLocation="http://sumo.dlr.de/xsd/sumoConfiguration.xsd">

    <input>
        <net-file value="Jan_Shoba_Multi_Normal.net.xml"/>
        <route-files value="Jan_Shoba_Multi_Normal.rou.xml,Jan_Shoba_Multi_Normal.rou.alt.xml"/>
    </input>

</configuration>
