<?xml version="1.0" encoding="UTF-8"?>

<!-- generated on Mon Aug 31 17:50:42 2020 by Eclipse SUMO netedit Version 1.6.0
<configuration xmlns:xsi="http://www.w3.org/2001/XMLSchema-instance" xsi:noNamespaceSchemaLocation="http://sumo.dlr.de/xsd/netconvertConfiguration.xsd">

    <input>
        <sumo-net-file value="/Users/thiveshanpillay/Documents/2020/COS%20301/Capstone/GitHub_Lightbot/LightBot/lightbot_sim/scenarios/Jan_Shoba_Multi_Peak/Jan_Shoba_Multi_Peak.net.xml"/>
    </input>

    <output>
        <output-file value="/Users/thiveshanpillay/Documents/2020/COS%20301/Capstone/GitHub_Lightbot/LightBot/lightbot_sim/scenarios/Jan_Shoba_Multi_Peak/Jan_Shoba_Multi_Peak.net.xml"/>
        <output.street-names value="true"/>
    </output>

    <processing>
        <geometry.min-radius.fix.railways value="false"/>
        <geometry.max-grade.fix value="false"/>
        <offset.disable-normalization value="true"/>
        <lefthand value="true"/>
    </processing>

    <junctions>
        <no-turnarounds value="true"/>
        <junctions.corner-detail value="5"/>
        <junctions.limit-turn-speed value="5.5"/>
        <rectangular-lane-cut value="false"/>
    </junctions>

    <pedestrian>
        <walkingareas value="false"/>
    </pedestrian>

    <netedit>
        <additional-files value="/Users/thiveshanpillay/Documents/2020/COS%20301/Capstone/GitHub_Lightbot/LightBot/lightbot_sim/scenarios/Jan_Shoba_Multi_Peak/Jan_Shoba_Multi.add.xml"/>
    </netedit>

    <report>
        <aggregate-warnings value="5"/>
    </report>

</configuration>
-->

<additional xmlns:xsi="http://www.w3.org/2001/XMLSchema-instance" xsi:noNamespaceSchemaLocation="http://sumo.dlr.de/xsd/additional_file.xsd">
    <poly id="106364822" type="building.yes" color="255,230,230" fill="1" layer="-1.00" shape="808.555850,34.057202 832.339229,47.977661 836.072341,42.847192 838.427643,43.711097 837.134876,49.150839 852.091423,52.443457 853.932680,46.666239 857.508468,47.186324 857.668966,52.501588 875.820580,52.108741 873.595677,17.238383 866.917502,17.467563 866.788354,14.411634 873.568497,14.358717 872.729145,-3.367032 868.278080,-3.103489 868.252992,-5.761641 872.705101,-5.914428 871.479471,-29.496066 853.394780,-41.155215 808.555850,34.057202"/>
    <poly id="106364822#1" type="tourism.hostel" color="207,245,201" fill="1" layer="-2.00" shape="808.555850,34.057202 832.339229,47.977661 836.072341,42.847192 838.427643,43.711097 837.134876,49.150839 852.091423,52.443457 853.932680,46.666239 857.508468,47.186324 857.668966,52.501588 875.820580,52.108741 873.595677,17.238383 866.917502,17.467563 866.788354,14.411634 873.568497,14.358717 872.729145,-3.367032 868.278080,-3.103489 868.252992,-5.761641 872.705101,-5.914428 871.479471,-29.496066 853.394780,-41.155215 808.555850,34.057202"/>
    <poly id="106364832" type="shop.mall" color="237,199,255" fill="1" layer="-1.00" shape="614.750920,69.756341 777.119160,27.574837 821.824111,-39.528116 798.245875,-52.985304 794.861306,-64.074303 779.904425,-113.146645 580.977144,-58.159504 614.750920,69.756341"/>
    <poly id="107182018" type="leisure.swimming_pool" color="207,245,201" fill="1" layer="-2.00" shape="380.642916,394.698137 393.399280,443.481394 417.304813,437.297435 404.548364,388.514197 380.642916,394.698137"/>
    <poly id="107182024" type="leisure.sports_centre" color="207,245,201" fill="1" layer="-2.00" shape="320.506195,330.420899 356.657067,455.302097 424.830191,437.536820 388.137023,311.586444 320.506195,330.420899"/>
    <poly id="107183445" type="building.yes" color="255,230,230" fill="1" layer="-1.00" shape="201.217668,365.380129 217.586940,420.842023 247.266917,412.167314 264.196043,469.540154 214.428987,484.074681 210.590380,469.456387 208.478716,461.423530 203.610933,446.161377 202.486161,438.540165 199.656913,424.588067 180.682567,427.147615 165.051756,376.607834 201.217668,365.380129"/>
    <poly id="107183445#1" type="landuse.residential" color="235,235,227" fill="1" layer="-3.00" shape="201.217668,365.380129 217.586940,420.842023 247.266917,412.167314 264.196043,469.540154 214.428987,484.074681 210.590380,469.456387 208.478716,461.423530 203.610933,446.161377 202.486161,438.540165 199.656913,424.588067 180.682567,427.147615 165.051756,376.607834 201.217668,365.380129"/>
    <poly id="150361302" type="building.yes" color="255,230,230" fill="1" layer="-1.00" shape="749.803279,-53.558550 744.513159,-44.414765 747.492046,-42.305067 731.351149,-12.711232 729.460470,-14.299516 726.240958,-13.205809 724.368024,-11.847881 724.383164,-10.241914 724.398304,-8.635948 675.040841,6.550094 673.666602,3.350826 666.954360,5.286025 667.531235,9.024485 666.473292,11.714994 663.815615,14.952255 661.686910,16.844261 659.818974,18.733809 657.416963,20.362550 655.538904,21.177762 652.592787,22.545790 649.654403,23.670060 648.305201,24.192296 644.812369,25.022719 641.582823,25.053145 637.819203,24.822763 635.387021,24.313999 631.339976,22.746015 628.095303,21.170471 626.194603,19.582267 620.061712,25.521718 611.747317,27.748894 620.379279,59.235930 707.307547,32.996010 706.201690,30.602808 704.789956,24.490747 743.693955,12.316314 755.861124,-10.007031 781.821214,3.937293 808.552230,-42.880963 796.373372,-50.519708 780.809270,-103.352371 763.099895,-98.632856 762.254600,-102.114020 755.552556,-100.167791 762.775242,-75.623657 760.639046,-74.529080 759.327879,-71.038657 760.957783,-68.384563 765.024980,-65.742377 755.209426,-50.397310 749.803279,-53.558550"/>
    <poly id="163240974" type="building.yes" color="255,230,230" fill="1" layer="-1.00" shape="516.603180,610.321407 525.807021,610.899398 531.407664,611.256528 525.698571,691.050684 510.681490,689.918174 512.315468,664.216171 508.230081,663.922311 510.593337,629.374321 514.901356,629.876540 516.603180,610.321407"/>
    <poly id="163243186" type="leisure.park" color="207,245,201" fill="1" layer="-2.00" shape="526.710545,598.186036 525.807021,610.899398 516.603180,610.321407 514.901356,629.876540 510.593337,629.374321 508.230081,663.922311 512.315468,664.216171 510.681490,689.918174 525.698571,691.050684 530.816446,691.268364 528.825151,731.229313 490.865814,728.905914 500.382174,596.362441 526.710545,598.186036"/>
    <poly id="235377880" type="natural.water" color="181,209,209" fill="1" layer="-4.00" shape="1201.234990,473.223970 1222.790910,455.153393 1233.397972,446.080939 1235.347363,440.081109 1238.862738,422.546760 1243.900444,414.302371 1251.541945,408.791415 1260.433058,395.415292 1266.562637,383.837567 1271.982371,387.341857 1279.228853,392.025126 1265.303912,403.455124 1262.362030,410.572018 1256.815639,425.478286 1256.001149,432.685807 1257.940254,438.316534 1269.337535,453.383628 1278.774158,461.601764 1283.689768,463.770550 1288.050127,464.504630 1296.158694,462.766359 1303.944201,460.809609 1313.441885,463.821125 1319.522335,471.417495 1328.624681,490.936930 1332.327139,494.224853 1348.303074,499.168780 1358.386611,504.722342 1365.569841,511.189505 1370.634177,516.347544 1370.824362,524.775062 1368.814901,547.722735 1364.410711,564.600945 1361.242932,571.166169 1351.082522,580.799401 1336.221743,587.696909 1325.655730,589.458475 1310.401007,589.713704 1296.332660,587.077758 1278.347481,581.820488 1273.544257,579.872166 1262.271631,577.985083 1249.888362,575.333138 1231.867478,566.299013 1214.160948,555.500707 1208.088416,549.798319 1200.933212,542.045919 1194.700391,535.303839 1190.161128,526.263949 1187.529417,519.521027 1186.438398,510.226981 1186.797542,500.476150 1188.845768,493.256965 1192.114509,485.693932 1195.403156,480.235270 1201.234990,473.223970"/>
    <poly id="25667987" type="leisure.pitch" color="207,245,201" fill="1" layer="-2.00" shape="1201.700120,910.447233 1211.121259,904.277039 1218.257226,897.253406 1225.619077,886.539115 1229.045040,878.620142 1231.308469,868.696222 1232.336116,856.446827 1231.385636,841.867906 1229.853044,829.376898 1227.402103,818.423154 1224.770293,810.616882 1221.128678,803.163541 1213.507307,793.864826 1203.411859,786.007322 1192.191207,780.087788 1178.097783,775.879065 1167.053741,774.842631 1158.719878,775.054369 1149.449587,777.013987 1135.656696,783.369475 1124.428541,791.506189 1117.693041,797.385095 1111.908651,804.130059 1106.205271,813.078502 1104.429057,817.249025 1102.288170,825.288736 1100.865080,839.225500 1102.758157,853.784436 1104.293962,860.260818 1107.543838,868.725864 1112.602942,877.572565 1117.847581,884.822477 1126.540186,893.900661 1132.038461,898.268248 1142.594061,904.925181 1152.390355,909.783798 1163.661614,913.620486 1179.072738,915.014382 1188.413468,914.128515 1201.700120,910.447233"/>
    <poly id="324961666" type="leisure.pitch" color="207,245,201" fill="1" layer="-2.00" shape="1213.889013,780.137276 1228.867235,778.201138 1224.918205,747.799937 1209.929987,749.736167 1213.889013,780.137276"/>
    <poly id="324961666#1" type="sport.netball" color="79,230,125" fill="1" layer="-2.00" shape="1213.889013,780.137276 1228.867235,778.201138 1224.918205,747.799937 1209.929987,749.736167 1213.889013,780.137276"/>
    <poly id="332647600" type="leisure.pitch" color="207,245,201" fill="1" layer="-2.00" shape="427.508490,867.482872 357.665213,861.471225 366.058711,765.125714 435.901383,771.126222 427.508490,867.482872"/>
    <poly id="332647600#1" type="sport.soccer" color="79,230,125" fill="1" layer="-2.00" shape="427.508490,867.482872 357.665213,861.471225 366.058711,765.125714 435.901383,771.126222 427.508490,867.482872"/>
    <poly id="332647601" type="leisure.pitch" color="207,245,201" fill="1" layer="-2.00" shape="254.372363,848.429524 291.533023,850.063292 293.180896,812.974482 256.020339,811.340723 254.372363,848.429524"/>
    <poly id="332647601#1" type="sport.soccer" color="79,230,125" fill="1" layer="-2.00" shape="254.372363,848.429524 291.533023,850.063292 293.180896,812.974482 256.020339,811.340723 254.372363,848.429524"/>
    <poly id="332647604" type="leisure.pitch" color="207,245,201" fill="1" layer="-2.00" shape="296.483454,850.603859 333.336315,852.572699 335.335337,815.502732 298.492609,813.533807 296.483454,850.603859"/>
    <poly id="332647604#1" type="sport.soccer" color="79,230,125" fill="1" layer="-2.00" shape="296.483454,850.603859 333.336315,852.572699 335.335337,815.502732 298.492609,813.533807 296.483454,850.603859"/>
    <poly id="332647606" type="leisure.pitch" color="207,245,201" fill="1" layer="-2.00" shape="238.897475,788.927398 346.588588,797.176016 349.416588,760.796078 241.725767,752.547495 238.897475,788.927398"/>
    <poly id="332647606#1" type="sport.tennis" color="79,230,125" fill="1" layer="-2.00" shape="238.897475,788.927398 346.588588,797.176016 349.416588,760.796078 241.725767,752.547495 238.897475,788.927398"/>
    <poly id="368862839" type="landuse.commercial" color="209,209,204" fill="1" layer="-3.00" shape="411.894302,204.318831 438.541534,196.403232 439.301906,200.461194 459.005518,195.490773 450.519425,163.481680 430.818152,168.695753 432.314204,174.186754 425.594522,176.409886 425.092784,174.254667 413.327063,177.477833 413.830986,179.865640 405.654693,181.858773 403.893153,173.734035 383.477550,178.722144 392.948835,213.114555 412.650188,207.900542 411.894302,204.318831"/>
    <poly id="378281207" type="landuse.commercial" color="209,209,204" fill="1" layer="-3.00" shape="378.269218,289.437398 305.025628,308.734373 301.291669,293.516981 302.841902,290.899418 317.337047,286.709203 305.334115,244.409690 285.516012,182.744158 338.121724,168.337695 344.613525,172.818091 378.269218,289.437398"/>
    <poly id="378281208" type="building.office" color="255,230,230" fill="1" layer="-1.00" shape="313.755247,267.403121 326.911779,263.801453 323.002367,249.128468 330.785364,246.906476 333.849794,258.120425 346.462204,254.258012 327.749740,182.181219 313.803541,186.067226 314.931983,191.938296 308.219599,193.873307 306.296272,188.807219 290.727633,192.963206 313.755247,267.403121"/>
    <poly id="384455170" type="leisure.pitch" color="207,245,201" fill="1" layer="-2.00" shape="735.761962,160.430063 751.118653,161.470474 749.081437,191.152856 733.714578,190.101460 735.761962,160.430063"/>
    <poly id="384455170#1" type="sport.basketball" color="79,230,125" fill="1" layer="-2.00" shape="735.761962,160.430063 751.118653,161.470474 749.081437,191.152856 733.714578,190.101460 735.761962,160.430063"/>
    <poly id="384455171" type="leisure.pitch" color="207,245,201" fill="1" layer="-2.00" shape="756.973103,161.105127 772.329797,162.145514 770.292525,191.816826 754.925766,190.776530 756.973103,161.105127"/>
    <poly id="384455171#1" type="sport.basketball" color="79,230,125" fill="1" layer="-2.00" shape="756.973103,161.105127 772.329797,162.145514 770.292525,191.816826 754.925766,190.776530 756.973103,161.105127"/>
    <poly id="384455172" type="leisure.pitch" color="207,245,201" fill="1" layer="-2.00" shape="682.616369,252.689642 695.181529,253.401977 693.741712,278.371150 681.176424,277.647737 682.616369,252.689642"/>
    <poly id="384455172#1" type="sport.tennis" color="79,230,125" fill="1" layer="-2.00" shape="682.616369,252.689642 695.181529,253.401977 693.741712,278.371150 681.176424,277.647737 682.616369,252.689642"/>
    <poly id="384455180" type="leisure.pitch" color="207,245,201" fill="1" layer="-2.00" shape="736.737588,251.149407 752.104413,252.189726 750.057040,281.861124 734.700210,280.820705 736.737588,251.149407"/>
    <poly id="384455180#1" type="sport.basketball" color="79,230,125" fill="1" layer="-2.00" shape="736.737588,251.149407 752.104413,252.189726 750.057040,281.861124 734.700210,280.820705 736.737588,251.149407"/>
    <poly id="384455203" type="leisure.pitch" color="207,245,201" fill="1" layer="-2.00" shape="683.758675,214.243038 696.323799,214.955370 694.883993,239.924545 682.318741,239.201135 683.758675,214.243038"/>
    <poly id="384455203#1" type="sport.tennis" color="79,230,125" fill="1" layer="-2.00" shape="683.758675,214.243038 696.323799,214.955370 694.883993,239.924545 682.318741,239.201135 683.758675,214.243038"/>
    <poly id="384455215" type="leisure.pitch" color="207,245,201" fill="1" layer="-2.00" shape="812.495937,195.472816 814.548944,94.113474 874.313558,97.548188 872.222649,195.906156 812.495937,195.472816"/>
    <poly id="384455218" type="leisure.pitch" color="207,245,201" fill="1" layer="-2.00" shape="737.382946,213.205922 752.749728,214.246240 750.702367,243.917639 735.345581,242.877223 737.382946,213.205922"/>
    <poly id="384455218#1" type="sport.basketball" color="79,230,125" fill="1" layer="-2.00" shape="737.382946,213.205922 752.749728,214.246240 750.702367,243.917639 735.345581,242.877223 737.382946,213.205922"/>
    <poly id="384455220" type="leisure.pitch" color="207,245,201" fill="1" layer="-2.00" shape="798.056087,295.896701 797.359740,205.052869 849.806325,204.646694 850.503033,295.490538 798.056087,295.896701"/>
    <poly id="384455220#1" type="sport.field_hockey" color="79,230,125" fill="1" layer="-2.00" shape="798.056087,295.896701 797.359740,205.052869 849.806325,204.646694 850.503033,295.490538 798.056087,295.896701"/>
    <poly id="384455221" type="leisure.pitch" color="207,245,201" fill="1" layer="-2.00" shape="701.176865,252.016280 713.742026,252.728598 712.312274,277.697680 699.746984,276.974285 701.176865,252.016280"/>
    <poly id="384455221#1" type="sport.tennis" color="79,230,125" fill="1" layer="-2.00" shape="701.176865,252.016280 713.742026,252.728598 712.312274,277.697680 699.746984,276.974285 701.176865,252.016280"/>
    <poly id="384455223" type="leisure.swimming_pool" color="207,245,201" fill="1" layer="-2.00" shape="706.538155,336.613212 702.134748,321.723442 699.185814,315.348953 683.808098,320.611262 691.160416,341.875529 706.538155,336.613212"/>
    <poly id="384455225" type="leisure.pitch" color="207,245,201" fill="1" layer="-2.00" shape="757.328174,251.952170 772.684974,252.992561 770.647780,282.674944 755.280812,281.623569 757.328174,251.952170"/>
    <poly id="384455225#1" type="sport.basketball" color="79,230,125" fill="1" layer="-2.00" shape="757.328174,251.952170 772.684974,252.992561 770.647780,282.674944 755.280812,281.623569 757.328174,251.952170"/>
    <poly id="384455228" type="leisure.pitch" color="207,245,201" fill="1" layer="-2.00" shape="701.827022,214.571205 714.392149,215.283521 712.962406,240.252604 700.397151,239.529211 701.827022,214.571205"/>
    <poly id="384455228#1" type="sport.tennis" color="79,230,125" fill="1" layer="-2.00" shape="701.827022,214.571205 714.392149,215.283521 712.962406,240.252604 700.397151,239.529211 701.827022,214.571205"/>
    <poly id="384455232" type="leisure.pitch" color="207,245,201" fill="1" layer="-2.00" shape="756.975194,214.516543 772.331950,215.556933 770.294766,245.239317 754.927842,244.187943 756.975194,214.516543"/>
    <poly id="384455232#1" type="sport.basketball" color="79,230,125" fill="1" layer="-2.00" shape="756.975194,214.516543 772.331950,215.556933 770.294766,245.239317 754.927842,244.187943 756.975194,214.516543"/>
    <poly id="384455237" type="leisure.pitch" color="207,245,201" fill="1" layer="-2.00" shape="719.910099,215.397657 732.475228,216.109955 731.035489,241.079137 718.470337,240.366837 719.910099,215.397657"/>
    <poly id="384455237#1" type="sport.tennis" color="79,230,125" fill="1" layer="-2.00" shape="719.910099,215.397657 732.475228,216.109955 731.035489,241.079137 718.470337,240.366837 719.910099,215.397657"/>
    <poly id="398339738" type="amenity.parking" color="184,184,179" fill="1" layer="-1.00" shape="553.034270,857.440848 553.425905,851.090272 560.762826,851.530744 561.517978,839.040312 553.789571,838.570295 554.501665,826.833477 573.330715,827.963294 571.481900,858.541030 553.034270,857.440848"/>
    <poly id="404311103" type="leisure.pitch" color="207,245,201" fill="1" layer="-2.00" shape="1233.848538,793.661278 1229.616238,763.007996 1244.974015,760.902098 1249.206456,791.566452 1233.848538,793.661278"/>
    <poly id="404311103#1" type="sport.netball" color="79,230,125" fill="1" layer="-2.00" shape="1233.848538,793.661278 1229.616238,763.007996 1244.974015,760.902098 1249.206456,791.566452 1233.848538,793.661278"/>
    <poly id="433789320" type="leisure.park" color="207,245,201" fill="1" layer="-2.00" shape="228.623043,879.486304 237.892524,737.441789 459.037096,749.154234 448.637156,857.138052 435.793653,879.157239 413.868696,889.099688 228.623043,879.486304"/>
    <poly id="433820479" type="leisure.pitch" color="207,245,201" fill="1" layer="-2.00" shape="2020.916580,1825.545392 1897.423833,1816.119931 1806.363242,1768.547397 1673.850718,1698.682878 1672.781359,1700.166221 1607.610000,1665.860096 1576.591375,1649.971405 1525.260228,1628.980631 1493.223031,1619.913536 1439.012659,1598.883272 1334.385199,1561.139302 1218.885167,1518.213836 1164.120156,1503.146951 1180.550241,1267.458444 1157.712295,1193.593992 1036.626659,985.877752 1075.880212,460.630119 900.351290,462.908383 874.053327,-96.866228 903.314509,-140.175148 1234.731124,-257.652516 1409.190721,-317.778900 1422.455275,-259.120882 1443.899708,-165.028704 1482.215445,9.408509 1523.324059,192.669368 1617.885683,463.382422 1597.491740,864.893870 1642.241486,920.948911 1720.486359,921.058779 1733.328971,1005.806030 1796.719370,1059.889082 1814.697476,1066.419569 2019.984676,1068.000016 2020.916580,1825.545392"/>
    <poly id="483968541" type="building.yes" color="255,230,230" fill="1" layer="-1.00" shape="249.819579,163.795076 276.506928,155.879427 273.211105,150.992376 248.204288,158.415943 249.819579,163.795076"/>
    <poly id="483968542" type="building.yes" color="255,230,230" fill="1" layer="-1.00" shape="284.255761,101.974385 294.772306,99.250438 297.966503,111.471146 276.142915,117.125839 265.624960,76.983360 285.977556,71.708027 288.484914,81.287882 277.027777,84.253268 278.588304,90.208895 286.923469,88.048197 288.920959,95.672284 283.548252,99.267266 284.255761,101.974385"/>
    <poly id="483968543" type="building.yes" color="255,230,230" fill="1" layer="-1.00" shape="285.682531,151.351523 298.287317,147.755061 296.939544,143.093399 301.814897,135.670584 309.017562,133.609126 305.326796,120.850333 279.046903,128.352383 285.682531,151.351523"/>
    <poly id="483969950" type="building.yes" color="255,230,230" fill="1" layer="-1.00" shape="406.760401,266.384983 451.815818,254.386231 446.202732,233.493173 420.208125,240.416829 417.204324,229.257709 398.133568,234.332880 406.760401,266.384983"/>
    <poly id="483969951" type="building.yes" color="255,230,230" fill="1" layer="-1.00" shape="461.635262,228.729071 467.217553,249.544877 485.993173,244.018242 486.318348,221.009079 461.635262,228.729071"/>
    <poly id="483969952" type="amenity.parking" color="184,184,179" fill="1" layer="-1.00" shape="395.124926,221.589848 398.989291,232.530426 416.962527,227.011433 421.095039,236.598139 486.019825,218.065512 482.646669,201.770335 465.420548,201.400716 395.124926,221.589848"/>
    <poly id="483969953" type="natural.wood" color="140,196,107" fill="1" layer="-4.00" shape="386.840000,228.360000 383.880000,223.170000 384.320000,217.420000 389.410000,214.960000 394.270000,217.590000 393.540000,224.290000 386.840000,228.360000"/>
    <poly id="483969954" type="natural.wood" color="140,196,107" fill="1" layer="-4.00" shape="387.360000,234.120000 389.900000,239.040000 393.920000,236.850000 392.820000,234.460000 390.110000,232.350000 387.360000,234.120000"/>
    <poly id="483969955" type="natural.wood" color="140,196,107" fill="1" layer="-4.00" shape="393.250000,251.580000 390.780000,245.120000 393.720000,243.820000 396.700000,246.460000 396.470000,250.210000 393.250000,251.580000"/>
    <poly id="483969956" type="natural.wood" color="140,196,107" fill="1" layer="-4.00" shape="397.914475,261.173539 394.897785,255.043312 397.287271,252.074472 400.795276,252.850082 403.277856,259.782845 397.914475,261.173539"/>
    <poly id="483969957" type="natural.wood" color="140,196,107" fill="1" layer="-4.00" shape="381.850278,212.620758 380.972410,204.598476 384.176903,201.898891 386.872379,202.671066 388.529967,207.207965 386.684561,211.500881 381.850278,212.620758"/>
    <poly id="483969958" type="natural.wood" color="140,196,107" fill="1" layer="-4.00" shape="416.008456,268.491193 420.065648,271.133580 486.906249,254.709650 486.828304,246.425085 416.524967,265.816876 416.008456,268.491193"/>
    <poly id="483970025" type="building.yes" color="255,230,230" fill="1" layer="-1.00" shape="266.451265,715.042634 266.695755,710.100181 301.308684,711.791056 301.064207,716.733510 266.451265,715.042634"/>
    <poly id="483970026" type="building.yes" color="255,230,230" fill="1" layer="-1.00" shape="282.909728,701.961700 283.715825,686.325065 288.824076,686.587234 288.891834,685.257407 297.030954,685.679410 296.157011,702.634798 282.909728,701.961700"/>
    <poly id="483970027" type="building.yes" color="255,230,230" fill="1" layer="-1.00" shape="263.981525,698.794319 264.918776,685.371772 279.118071,685.947333 278.361377,699.368187 263.981525,698.794319"/>
    <poly id="483970028" type="building.yes" color="255,230,230" fill="1" layer="-1.00" shape="255.035200,664.751358 256.230997,650.019346 268.467993,651.001023 267.272210,665.733036 255.035200,664.751358"/>
    <poly id="483970029" type="building.yes" color="255,230,230" fill="1" layer="-1.00" shape="255.976898,635.777241 256.871349,616.728188 269.325231,617.309069 268.430799,636.358123 255.976898,635.777241"/>
    <poly id="483970030" type="building.yes" color="255,230,230" fill="1" layer="-1.00" shape="302.169560,705.192400 302.838933,693.156937 307.776779,693.431777 307.966439,690.129172 314.198900,690.469384 313.339983,705.818528 302.169560,705.192400"/>
    <poly id="483970031" type="building.yes" color="255,230,230" fill="1" layer="-1.00" shape="337.419547,708.494378 337.617784,696.496569 352.526220,696.744168 352.317967,708.742073 337.419547,708.494378"/>
    <poly id="483970032" type="building.yes" color="255,230,230" fill="1" layer="-1.00" shape="330.010836,697.199403 330.051559,695.127698 333.573075,695.194303 333.477398,699.958135 330.156587,699.900722 330.062053,704.786386 321.423805,704.623854 321.642803,693.766739 327.191032,693.880765 327.121322,697.137937 330.010836,697.199403"/>
    <poly id="483970034" type="building.yes" color="255,230,230" fill="1" layer="-1.00" shape="251.105070,678.855524 251.455887,672.416733 255.610854,672.643559 255.798550,669.130519 260.324735,669.364935 260.127633,672.944523 267.283375,673.331471 267.488945,669.585654 272.075519,669.841651 271.870574,673.653922 275.393228,673.842373 275.050788,680.103861 264.844115,679.557264 264.869005,679.003201 261.637432,678.834167 261.602719,679.410476 251.105070,678.855524"/>
    <poly id="483971991" type="building.yes" color="255,230,230" fill="1" layer="-1.00" shape="341.796407,651.198359 368.995388,652.792560 369.454537,645.078937 364.355913,644.772403 364.616119,640.439010 359.126114,640.113999 358.866115,644.469542 353.155343,644.135526 353.441479,639.358827 347.891295,639.034376 347.614666,643.755603 342.255156,643.440435 341.796407,651.198359"/>
    <poly id="483989210" type="building.yes" color="255,230,230" fill="1" layer="-1.00" shape="260.421812,494.896681 261.546624,477.950013 288.315504,479.714549 287.180694,496.661315 260.421812,494.896681"/>
    <poly id="483989211" type="building.yes" color="255,230,230" fill="1" layer="-1.00" shape="294.636611,538.626945 299.073314,538.950799 299.296391,536.002330 312.194957,536.944518 313.263817,522.590291 308.305142,522.227040 307.949305,527.059776 305.409734,526.873177 305.774771,521.951742 295.937662,521.224478 294.636611,538.626945"/>
    <poly id="483989212" type="building.yes" color="255,230,230" fill="1" layer="-1.00" shape="298.121121,501.653785 298.559575,494.937253 299.573332,495.005266 300.161694,486.094160 299.107714,486.015448 299.519925,479.708995 318.439545,480.926912 317.860081,489.716093 316.695770,489.638419 316.301961,495.767474 317.566677,495.855282 317.111086,502.882121 298.121121,501.653785"/>
    <poly id="483989213" type="building.yes" color="255,230,230" fill="1" layer="-1.00" shape="336.290158,498.614663 335.963535,507.623002 348.897618,508.077448 349.214306,499.080279 336.290158,498.614663"/>
    <poly id="545469274" type="landuse.construction" color="194,194,130" fill="1" layer="-3.00" shape="271.447070,188.514294 287.779925,248.628630 215.965266,268.399065 214.215016,262.533826 210.702870,263.452924 196.052304,208.340416 271.447070,188.514294"/>
    <poly id="59465589" type="amenity.school" color="237,199,199" fill="1" layer="-1.00" shape="706.412891,179.647731 755.674246,106.332435 778.705572,58.585481 789.344340,57.133792 827.235862,79.040346 880.815868,85.058847 883.968728,187.421368 894.939594,463.435757 505.770606,468.620708 479.938861,415.064693 495.028573,411.156686 504.669832,398.538337 496.394025,388.902025 607.794407,276.876906 594.057260,253.966927 624.488365,245.228883 659.551428,236.258825 667.586287,232.029392 706.412891,179.647731"/>
    <poly id="618568572" type="amenity.fuel" color="237,199,199" fill="1" layer="-1.00" shape="516.113819,481.560543 522.173642,511.532184 532.846557,509.404727 530.794917,499.244639 541.818142,497.036342 539.638423,486.057792 528.565162,488.277635 526.776576,479.422109 516.113819,481.560543"/>
    <poly id="618568572#1" type="building.yes" color="255,230,230" fill="1" layer="-1.00" shape="516.113819,481.560543 522.173642,511.532184 532.846557,509.404727 530.794917,499.244639 541.818142,497.036342 539.638423,486.057792 528.565162,488.277635 526.776576,479.422109 516.113819,481.560543"/>
    <poly id="625525013" type="building.yes" color="255,230,230" fill="1" layer="-1.00" shape="534.464485,435.109813 538.017001,448.069232 512.813643,454.908066 514.824153,440.445260 534.464485,435.109813"/>
    <poly id="687315868" type="landuse.residential" color="235,235,227" fill="1" layer="-3.00" shape="965.959423,83.346627 916.643324,86.991334 917.107710,97.930653 966.784828,95.334816 965.959423,83.346627"/>
    <poly id="687315869" type="landuse.residential" color="235,235,227" fill="1" layer="-3.00" shape="920.193977,199.584903 920.077277,187.224495 1010.218282,183.548584 1009.612906,194.852461 920.193977,199.584903"/>
    <poly id="721805590" type="building.yes" color="255,230,230" fill="1" layer="-1.00" shape="308.256578,648.400935 335.455650,650.006281 335.914714,642.281584 330.816196,641.986112 331.076309,637.641645 325.596337,637.316525 325.336327,641.672068 319.615527,641.338132 319.901676,636.561434 314.351494,636.236969 314.074854,640.958195 308.725377,640.642919 308.256578,648.400935"/>
    <poly id="721805591" type="building.yes" color="255,230,230" fill="1" layer="-1.00" shape="301.485231,668.646085 301.826097,662.218462 305.991093,662.445178 306.178672,658.921061 310.704958,659.166534 310.507871,662.746124 317.663610,663.133044 317.869165,659.387226 322.455633,659.632130 322.250704,663.444403 325.773460,663.643916 325.431045,669.905406 315.224271,669.347773 315.249263,668.804785 312.017691,668.635763 311.982981,669.212072 301.485231,668.646085"/>
    <poly id="721805592" type="building.yes" color="255,230,230" fill="1" layer="-1.00" shape="348.836032,672.321731 349.186905,665.894012 353.341873,666.120807 353.539470,662.596594 358.055729,662.842146 357.858654,666.421737 365.024428,666.808538 365.229970,663.062718 369.816441,663.307606 369.601495,667.119974 373.124150,667.308399 372.781757,673.569891 362.575080,673.023370 362.610101,672.480288 359.368392,672.300296 359.343818,672.887587 348.836032,672.321731"/>
    <poly id="721805593" type="building.yes" color="255,230,230" fill="1" layer="-1.00" shape="362.019223,629.885270 362.369983,623.446473 366.524938,623.673264 366.722634,620.160127 371.238776,620.394598 371.041706,623.974189 378.207458,624.360982 378.412995,620.615162 382.999555,620.871120 382.784614,624.683488 386.307258,624.871910 385.964874,631.133403 375.758229,630.586893 375.793144,630.032735 372.551550,629.863823 372.526873,630.440038 362.019223,629.885270"/>