<?xml version="1.0" encoding="UTF-8"?>

<!-- generated on Wed Jun 10 15:12:50 2020 by Eclipse SUMO netedit Version 6bfc49c2
<configuration xmlns:xsi="http://www.w3.org/2001/XMLSchema-instance" xsi:noNamespaceSchemaLocation="http://sumo.dlr.de/xsd/netconvertConfiguration.xsd">

    <input>
        <sumo-net-file value="/Users/thiveshanpillay/Documents/2020/COS%20301/Capstone/Simulation/simulation.net.xml"/>
    </input>

    <output>
        <output-file value="/Users/thiveshanpillay/Documents/2020/COS%20301/Capstone/Simulation/simulation.net.xml"/>
    </output>

    <processing>
        <geometry.min-radius.fix.railways value="false"/>
        <geometry.max-grade.fix value="false"/>
        <offset.disable-normalization value="true"/>
        <lefthand value="false"/>
    </processing>

    <junctions>
        <no-turnarounds value="true"/>
        <junctions.corner-detail value="5"/>
        <junctions.limit-turn-speed value="5.5"/>
        <rectangular-lane-cut value="false"/>
    </junctions>

    <pedestrian>
        <walkingareas value="false"/>
    </pedestrian>

    <netedit>
        <route-files value="/Users/thiveshanpillay/Documents/2020/COS%20301/Capstone/Simulation/demo.rou.xml"/>
    </netedit>

    <report>
        <aggregate-warnings value="5"/>
    </report>

</configuration>
-->

<routes xmlns:xsi="http://www.w3.org/2001/XMLSchema-instance" xsi:noNamespaceSchemaLocation="http://sumo.dlr.de/xsd/routes_file.xsd">
    <vType id="car" length="5.00" maxSpeed="20.00" accel="3.5" decel="2.2" sigma="1.0"/>

    <route edges="e1 e2" color="yellow" id="route_0"/>
    <route edges="e1 e4" color="yellow" id="route_1"/>
    <route edges="e1 e3r" color="yellow" id="route_2"/>
    <route edges="e3 e4" color="yellow" id="route_3"/>
    <route edges="e3 e2" color="yellow" id="route_4"/>
    <route edges="e3 e1r" color="yellow" id="route_5"/>
    <route edges="e2r e1r" color="yellow" id="route_6"/>
    <route edges="e2r e3r" color="yellow" id="route_7"/>
    <route edges="e2r e4" color="yellow" id="route_8"/>
    <route edges="e4r e3r" color="yellow" id="route_9"/>
    <route edges="e4r e2" color="yellow" id="route_10"/>
    <route edges="e4r e1r" color="yellow" id="route_11"/>

    <flow id="flow1" type="car" end="0" number="10" from="e1" to="e2"/>
    <flow id="flow2" type="car" end="0" number="10" from="e3" to="e4"/>
    <flow id="flow3" type="car" end="0" number="10" from="e2r" to="e1r"/>
    <flow id="flow4" type="car" end="0" number="10" from="e4r" to="e3r"/>

</routes>
