<?xml version="1.0" encoding="UTF-8"?>

<!-- generated on Wed Jul 22 15:11:19 2020 by Eclipse SUMO netedit Version 1.6.0
<configuration xmlns:xsi="http://www.w3.org/2001/XMLSchema-instance" xsi:noNamespaceSchemaLocation="http://sumo.dlr.de/xsd/netconvertConfiguration.xsd">

    <input>
        <sumo-net-file value="/Users/thiveshanpillay/Documents/2020/COS%20301/Capstone/Simulation_JanSouth/Network/jan_south.net.xml"/>
    </input>

    <output>
        <output-file value="/Users/thiveshanpillay/Documents/2020/COS%20301/Capstone/Simulation_JanSouth/Network/jan_south.net.xml"/>
        <output.street-names value="true"/>
    </output>

    <processing>
        <geometry.min-radius.fix.railways value="false"/>
        <geometry.max-grade.fix value="false"/>
        <offset.disable-normalization value="true"/>
        <lefthand value="true"/>
    </processing>

    <junctions>
        <no-turnarounds value="true"/>
        <junctions.corner-detail value="5"/>
        <junctions.limit-turn-speed value="5.5"/>
        <rectangular-lane-cut value="false"/>
    </junctions>

    <pedestrian>
        <walkingareas value="false"/>
    </pedestrian>

    <report>
        <aggregate-warnings value="5"/>
    </report>

</configuration>
-->

<net version="1.6" junctionCornerDetail="5" lefthand="true" limitTurnSpeed="5.50" xmlns:xsi="http://www.w3.org/2001/XMLSchema-instance" xsi:noNamespaceSchemaLocation="http://sumo.dlr.de/xsd/net_file.xsd">

    <location netOffset="-623934.04,2849148.65" convBoundary="338.32,113.27,570.04,315.49" origBoundary="28.235751,-25.755108,28.242738,-25.751747" projParameter="+proj=utm +zone=35 +ellps=WGS84 +datum=WGS84 +units=m +no_defs"/>

    <edge id=":junc_JanShobaAndSouthStr_0" function="internal">
        <lane id=":junc_JanShobaAndSouthStr_0_0" index="0" speed="7.04" length="10.96" shape="451.21,201.14 450.86,204.62 449.80,207.08 448.04,208.53 445.57,208.96"/>
    </edge>
    <edge id=":junc_JanShobaAndSouthStr_1" function="internal">
        <lane id=":junc_JanShobaAndSouthStr_1_0" index="0" speed="27.78" length="20.05" shape="451.21,201.14 451.47,207.08 452.05,211.13 452.68,215.17 453.07,221.10"/>
        <lane id=":junc_JanShobaAndSouthStr_1_1" index="1" speed="27.78" length="20.05" shape="454.41,201.08 454.67,207.01 455.25,211.05 455.87,215.09 456.27,221.02"/>
    </edge>
    <edge id=":junc_JanShobaAndSouthStr_3" function="internal">
        <lane id=":junc_JanShobaAndSouthStr_3_0" index="0" speed="9.96" length="22.08" shape="457.61,201.02 458.59,206.05 461.51,209.71 466.38,212.00 473.20,212.92"/>
    </edge>
    <edge id=":junc_JanShobaAndSouthStr_4" function="internal">
        <lane id=":junc_JanShobaAndSouthStr_4_0" index="0" speed="7.13" length="10.71" shape="473.39,206.55 470.08,206.13 467.70,205.05 466.26,203.29 465.74,200.86"/>
    </edge>
    <edge id=":junc_JanShobaAndSouthStr_5" function="internal">
        <lane id=":junc_JanShobaAndSouthStr_5_0" index="0" speed="7.92" length="13.44" shape="473.39,206.55 468.68,206.11 465.30,205.03 463.26,203.30 462.54,200.92"/>
    </edge>
    <edge id=":junc_JanShobaAndSouthStr_6" function="internal">
        <lane id=":junc_JanShobaAndSouthStr_6_0" index="0" speed="16.67" length="27.94" shape="473.39,206.55 465.53,206.86 457.61,207.72 450.62,208.61 445.57,208.96"/>
    </edge>
    <edge id=":junc_JanShobaAndSouthStr_7" function="internal">
        <lane id=":junc_JanShobaAndSouthStr_7_0" index="0" speed="10.51" length="16.60" shape="473.29,209.75 464.34,210.30 457.98,212.37 457.30,213.02"/>
    </edge>
    <edge id=":junc_JanShobaAndSouthStr_8" function="internal">
        <lane id=":junc_JanShobaAndSouthStr_8_0" index="0" speed="9.94" length="13.75" shape="473.29,209.75 465.74,210.32 460.38,212.38 460.10,212.70"/>
    </edge>
    <edge id=":junc_JanShobaAndSouthStr_17" function="internal">
        <lane id=":junc_JanShobaAndSouthStr_17_0" index="0" speed="10.51" length="9.52" shape="457.30,213.02 454.23,215.97 453.07,221.10"/>
    </edge>
    <edge id=":junc_JanShobaAndSouthStr_18" function="internal">
        <lane id=":junc_JanShobaAndSouthStr_18_0" index="0" speed="9.94" length="9.49" shape="460.10,212.70 457.23,215.95 456.27,221.02"/>
    </edge>
    <edge id=":junc_JanShobaAndSouthStr_9" function="internal">
        <lane id=":junc_JanShobaAndSouthStr_9_0" index="0" speed="7.02" length="10.96" shape="467.59,220.73 467.92,217.25 468.97,214.79 470.73,213.34 473.20,212.92"/>
    </edge>
    <edge id=":junc_JanShobaAndSouthStr_10" function="internal">
        <lane id=":junc_JanShobaAndSouthStr_10_0" index="0" speed="27.78" length="19.99" shape="467.59,220.73 467.30,214.82 466.72,210.79 466.10,206.77 465.74,200.86"/>
        <lane id=":junc_JanShobaAndSouthStr_10_1" index="1" speed="27.78" length="19.99" shape="464.39,220.81 464.11,214.89 463.52,210.86 462.90,206.84 462.54,200.92"/>
    </edge>
    <edge id=":junc_JanShobaAndSouthStr_12" function="internal">
        <lane id=":junc_JanShobaAndSouthStr_12_0" index="0" speed="9.98" length="22.13" shape="461.19,220.89 460.19,215.82 457.26,212.14 452.38,209.85 445.57,208.96"/>
    </edge>
    <edge id=":junc_JanShobaAndSouthStr_13" function="internal">
        <lane id=":junc_JanShobaAndSouthStr_13_0" index="0" speed="7.14" length="10.71" shape="445.41,215.41 448.71,215.83 451.09,216.91 452.54,218.67 453.07,221.10"/>
    </edge>
    <edge id=":junc_JanShobaAndSouthStr_14" function="internal">
        <lane id=":junc_JanShobaAndSouthStr_14_0" index="0" speed="7.93" length="13.42" shape="445.41,215.41 450.11,215.85 453.49,216.93 455.54,218.65 456.27,221.02"/>
    </edge>
    <edge id=":junc_JanShobaAndSouthStr_15" function="internal">
        <lane id=":junc_JanShobaAndSouthStr_15_0" index="0" speed="16.67" length="27.92" shape="445.41,215.41 453.27,215.09 461.18,214.19 468.16,213.28 473.20,212.92"/>
    </edge>
    <edge id=":junc_JanShobaAndSouthStr_16" function="internal">
        <lane id=":junc_JanShobaAndSouthStr_16_0" index="0" speed="9.96" length="13.79" shape="445.49,212.21 453.04,211.64 458.39,209.57 458.71,209.21"/>
    </edge>
    <edge id=":junc_JanShobaAndSouthStr_19" function="internal">
        <lane id=":junc_JanShobaAndSouthStr_19_0" index="0" speed="9.96" length="9.47" shape="458.71,209.21 461.56,206.00 462.54,200.92"/>
    </edge>
    <edge id=":junc_roadSplit_JanShobaN_0" function="internal">
        <lane id=":junc_roadSplit_JanShobaN_0_0" index="0" speed="27.78" length="8.44" shape="469.07,258.73 468.98,256.36 468.51,254.76 467.99,253.16 467.73,250.79"/>
        <lane id=":junc_roadSplit_JanShobaN_0_1" index="1" speed="27.78" length="8.44" shape="465.87,258.50 465.78,256.20 465.31,254.66 464.79,253.11 464.53,250.80"/>
        <lane id=":junc_roadSplit_JanShobaN_0_2" index="2" speed="27.78" length="8.44" shape="465.87,258.50 465.30,256.05 463.73,254.66 462.10,253.27 461.33,250.82"/>
    </edge>
    <edge id=":junc_roadSplit_JanShobaS_0" function="internal">
        <lane id=":junc_roadSplit_JanShobaS_0_0" index="0" speed="27.78" length="8.58" shape="449.84,160.05 449.97,162.45 450.46,164.06 450.98,165.68 451.23,168.08"/>
        <lane id=":junc_roadSplit_JanShobaS_0_1" index="1" speed="27.78" length="8.58" shape="453.04,160.22 453.17,162.57 453.66,164.15 454.18,165.73 454.43,168.08"/>
        <lane id=":junc_roadSplit_JanShobaS_0_2" index="2" speed="27.78" length="8.58" shape="453.04,160.22 453.65,162.73 455.24,164.15 456.88,165.57 457.63,168.08"/>
    </edge>
    <edge id=":junc_roadSplit_SouthStrE_0" function="internal">
        <lane id=":junc_roadSplit_SouthStrE_0_0" index="0" speed="16.67" length="8.40" shape="505.45,210.47 503.00,209.89 501.49,208.75 499.98,207.61 497.53,207.06"/>
        <lane id=":junc_roadSplit_SouthStrE_0_1" index="1" speed="16.67" length="8.40" shape="505.45,210.47 497.47,210.26"/>
    </edge>
    <edge id=":junc_roadSplit_SouthStrW_0" function="internal">
        <lane id=":junc_roadSplit_SouthStrW_0_0" index="0" speed="16.67" length="8.40" shape="408.58,211.39 411.03,211.96 412.54,213.10 414.05,214.23 416.50,214.79"/>
        <lane id=":junc_roadSplit_SouthStrW_0_1" index="1" speed="16.67" length="8.40" shape="408.58,211.39 416.57,211.59"/>
    </edge>

    <edge id="road_double_JanShobaN_fromJunc" from="junc_JanShobaAndSouthStr" to="junc_JanShobaN" name="Jan Shoba Street" priority="-1" spreadType="center" shape="454.41,210.65 457.05,315.45">
        <lane id="road_double_JanShobaN_fromJunc_0" index="0" speed="27.78" length="94.54" shape="453.07,221.10 455.45,315.61">
            <param key="origId" value="617551198"/>
        </lane>
        <lane id="road_double_JanShobaN_fromJunc_1" index="1" speed="27.78" length="94.54" shape="456.27,221.02 458.65,315.53">
            <param key="origId" value="617551198"/>
        </lane>
    </edge>
    <edge id="road_double_JanShobaN_toJunc" from="junc_JanShobaN" to="junc_roadSplit_JanShobaN" name="Jan Shoba Street" priority="-1">
        <lane id="road_double_JanShobaN_toJunc_0" index="0" speed="27.78" length="57.24" shape="465.04,315.83 469.07,258.73"/>
        <lane id="road_double_JanShobaN_toJunc_1" index="1" speed="27.78" length="57.24" shape="461.85,315.60 465.87,258.50"/>
    </edge>
    <edge id="road_double_JanShobaS_fromJunc" from="junc_JanShobaAndSouthStr" to="junc_JanShobaS" name="Jan Shoba Street" priority="-1" spreadType="center" shape="464.34,211.16 462.45,115.19">
        <lane id="road_double_JanShobaS_fromJunc_0" index="0" speed="27.78" length="87.74" shape="465.74,200.86 464.01,113.13">
            <param key="origId" value="244373220"/>
        </lane>
        <lane id="road_double_JanShobaS_fromJunc_1" index="1" speed="27.78" length="87.74" shape="462.54,200.92 460.81,113.20">
            <param key="origId" value="244373220"/>
        </lane>
    </edge>
    <edge id="road_double_JanShobaS_toJunc" from="junc_JanShobaS" to="junc_roadSplit_JanShobaS" name="Jan Shoba Street" priority="-1">
        <lane id="road_double_JanShobaS_toJunc_0" index="0" speed="27.78" length="47.10" shape="452.30,113.02 449.84,160.05"/>
        <lane id="road_double_JanShobaS_toJunc_1" index="1" speed="27.78" length="47.10" shape="455.49,113.19 453.04,160.22"/>
    </edge>
    <edge id="road_double_SouthStrE_toJunc" from="junc_roadSplit_SouthStrE" to="junc_JanShobaAndSouthStr" name="South Street" priority="-1" shape="501.42,211.94 464.34,211.16">
        <lane id="road_double_SouthStrE_toJunc_0" index="0" speed="16.67" length="24.16" shape="497.53,207.06 473.39,206.55">
            <param key="origId" value="579723769"/>
        </lane>
        <lane id="road_double_SouthStrE_toJunc_1" index="1" speed="16.67" length="24.16" shape="497.47,210.26 473.29,209.75">
            <param key="origId" value="579723769"/>
        </lane>
    </edge>
    <edge id="road_double_SouthStrW_toJunc" from="junc_roadSplit_SouthStrW" to="junc_JanShobaAndSouthStr" name="South Street" priority="-1">
        <lane id="road_double_SouthStrW_toJunc_0" index="0" speed="16.67" length="28.92" shape="416.50,214.79 445.41,215.41"/>
        <lane id="road_double_SouthStrW_toJunc_1" index="1" speed="16.67" length="28.92" shape="416.57,211.59 445.49,212.21"/>
    </edge>
    <edge id="road_single_SouthStrE_fromJunc" from="junc_JanShobaAndSouthStr" to="junc_SouthStrE" name="South Street" priority="-1">
        <lane id="road_single_SouthStrE_fromJunc_0" index="0" speed="16.67" length="96.83" shape="473.20,212.92 569.99,215.77"/>
    </edge>
    <edge id="road_single_SouthStrE_toJunc" from="junc_SouthStrE" to="junc_roadSplit_SouthStrE" name="South Street" priority="-1">
        <lane id="road_single_SouthStrE_toJunc_0" index="0" speed="16.67" length="64.68" shape="570.09,212.57 505.45,210.47"/>
    </edge>
    <edge id="road_single_SouthStrW_fromJunc" from="junc_JanShobaAndSouthStr" to="junc_SouthStrW" name="South Street" priority="-1">
        <lane id="road_single_SouthStrW_fromJunc_0" index="0" speed="16.67" length="107.25" shape="445.57,208.96 338.36,206.27"/>
    </edge>
    <edge id="road_single_SouthStrW_toJunc" from="junc_SouthStrW" to="junc_roadSplit_SouthStrW" name="South Street" priority="-1">
        <lane id="road_single_SouthStrW_toJunc_0" index="0" speed="16.67" length="70.33" shape="338.28,209.47 408.58,211.39"/>
    </edge>
    <edge id="road_triple_JanShobaN_toJunc" from="junc_roadSplit_JanShobaN" to="junc_JanShobaAndSouthStr" name="Jan Shoba Street" priority="-1" spreadType="center" shape="464.55,254.54 464.34,211.16">
        <lane id="road_triple_JanShobaN_toJunc_0" index="0" speed="27.78" length="29.99" shape="467.73,250.79 467.59,220.73">
            <param key="origId" value="617551197"/>
        </lane>
        <lane id="road_triple_JanShobaN_toJunc_1" index="1" speed="27.78" length="29.99" shape="464.53,250.80 464.39,220.81">
            <param key="origId" value="617551197"/>
        </lane>
        <lane id="road_triple_JanShobaN_toJunc_2" index="2" speed="27.78" length="29.99" shape="461.33,250.82 461.19,220.89">
            <param key="origId" value="617551197"/>
        </lane>
    </edge>
    <edge id="road_triple_JanShobaS_toJunc" from="junc_roadSplit_JanShobaS" to="junc_JanShobaAndSouthStr" name="Jan Shoba Street" priority="-1" spreadType="center" shape="454.43,164.23 454.41,210.65">
        <lane id="road_triple_JanShobaS_toJunc_0" index="0" speed="27.78" length="33.00" shape="451.23,168.08 451.21,201.14">
            <param key="origId" value="617551196"/>
        </lane>
        <lane id="road_triple_JanShobaS_toJunc_1" index="1" speed="27.78" length="33.00" shape="454.43,168.08 454.41,201.08">
            <param key="origId" value="617551196"/>
        </lane>
        <lane id="road_triple_JanShobaS_toJunc_2" index="2" speed="27.78" length="33.00" shape="457.63,168.08 457.61,201.02">
            <param key="origId" value="617551196"/>
        </lane>
    </edge>

    <tlLogic id="cluster_25290891_611769793" type="static" programID="0" offset="0">
        <phase duration="22" state="GGGrrrrrrGGGrrrrr"/>
        <phase duration="8"  state="yyyrrrrrryyyrrrrr"/>
        <phase duration="8"  state="rrrGrrrrrrrrGrrrr"/>
        <phase duration="8"  state="rrryrrrrrrrryrrrr"/>
        <phase duration="22" state="rrrrGGGggrrrrGGGg"/>
        <phase duration="8"  state="rrrryyyggrrrryyyg"/>
        <phase duration="12"  state="rrrrrrrGGrrrrrrrG"/>
        <phase duration="8"  state="rrrrrrryyrrrrrrry"/>
    </tlLogic>

    <junction id="junc_JanShobaAndSouthStr" type="traffic_light" x="459.38" y="210.91" incLanes="road_triple_JanShobaS_toJunc_0 road_triple_JanShobaS_toJunc_1 road_triple_JanShobaS_toJunc_2 road_double_SouthStrE_toJunc_0 road_double_SouthStrE_toJunc_1 road_triple_JanShobaN_toJunc_0 road_triple_JanShobaN_toJunc_1 road_triple_JanShobaN_toJunc_2 road_double_SouthStrW_toJunc_0 road_double_SouthStrW_toJunc_1" intLanes=":junc_JanShobaAndSouthStr_0_0 :junc_JanShobaAndSouthStr_1_0 :junc_JanShobaAndSouthStr_1_1 :junc_JanShobaAndSouthStr_3_0 :junc_JanShobaAndSouthStr_4_0 :junc_JanShobaAndSouthStr_5_0 :junc_JanShobaAndSouthStr_6_0 :junc_JanShobaAndSouthStr_17_0 :junc_JanShobaAndSouthStr_18_0 :junc_JanShobaAndSouthStr_9_0 :junc_JanShobaAndSouthStr_10_0 :junc_JanShobaAndSouthStr_10_1 :junc_JanShobaAndSouthStr_12_0 :junc_JanShobaAndSouthStr_13_0 :junc_JanShobaAndSouthStr_14_0 :junc_JanShobaAndSouthStr_15_0 :junc_JanShobaAndSouthStr_19_0" shape="449.61,201.18 467.34,200.82 468.05,203.06 468.90,203.86 470.08,204.44 471.59,204.80 473.44,204.95 473.15,214.52 470.94,215.15 470.16,216.00 469.61,217.21 469.29,218.77 469.19,220.69 451.47,221.14 450.75,218.90 449.90,218.11 448.72,217.53 447.21,217.16 445.37,217.01 445.61,207.36 447.83,206.72 448.61,205.87 449.17,204.66 449.50,203.09" name="Jan Shoba and South Street">
        <request index="0"  response="00000000000000000" foes="00001000001000000" cont="0"/>
        <request index="1"  response="10000000110000000" foes="11111000111000000" cont="0"/>
        <request index="2"  response="10000000110000000" foes="11111000111000000" cont="0"/>
        <request index="3"  response="10000111110000000" foes="11000111111000000" cont="0"/>
        <request index="4"  response="00000110000000000" foes="10000110000000000" cont="0"/>
        <request index="5"  response="00000110000000000" foes="10000110000000000" cont="0"/>
        <request index="6"  response="00001110000001111" foes="10001110000001111" cont="0"/>
        <request index="7"  response="01111110000001110" foes="01111110000001110" cont="1"/>
        <request index="8"  response="01111110000001110" foes="01111110000001110" cont="1"/>
        <request index="9"  response="00000000000000000" foes="01000000000001000" cont="0"/>
        <request index="10" response="10000000110000000" foes="11000000111111000" cont="0"/>
        <request index="11" response="10000000110000000" foes="11000000111111000" cont="0"/>
        <request index="12" response="10000000110000111" foes="11000000111000111" cont="0"/>
        <request index="13" response="00000000000000110" foes="00000000110000110" cont="0"/>
        <request index="14" response="00000000000000110" foes="00000000110000110" cont="0"/>
        <request index="15" response="00001111000001110" foes="00001111110001110" cont="0"/>
        <request index="16" response="00001110001111110" foes="00001110001111110" cont="1"/>
    </junction>
    <junction id="junc_JanShobaN" type="dead_end" x="460.25" y="315.49" incLanes="road_double_JanShobaN_fromJunc_0 road_double_JanShobaN_fromJunc_1" intLanes="" shape="460.25,315.49 466.63,315.94 453.85,315.65"/>
    <junction id="junc_JanShobaS" type="dead_end" x="457.09" y="113.27" incLanes="road_double_JanShobaS_fromJunc_0 road_double_JanShobaS_fromJunc_1" intLanes="" shape="457.09,113.27 450.70,112.94 465.61,113.10"/>
    <junction id="junc_SouthStrE" type="dead_end" x="570.04" y="214.17" incLanes="road_single_SouthStrE_fromJunc_0" intLanes="" shape="570.04,214.17 570.14,210.97 569.95,217.37"/>
    <junction id="junc_SouthStrW" type="dead_end" x="338.32" y="207.87" incLanes="road_single_SouthStrW_fromJunc_0" intLanes="" shape="338.32,207.87 338.23,211.07 338.40,204.67"/>
    <junction id="junc_roadSplit_JanShobaN" type="priority" x="464.55" y="254.54" incLanes="road_double_JanShobaN_toJunc_0 road_double_JanShobaN_toJunc_1" intLanes=":junc_roadSplit_JanShobaN_0_0 :junc_roadSplit_JanShobaN_0_1 :junc_roadSplit_JanShobaN_0_2" shape="470.66,258.84 464.28,258.39 463.24,255.45 462.13,254.61 460.99,253.77 460.10,252.61 459.73,250.83 469.33,250.78 469.75,253.78 470.11,254.81 470.45,255.85 470.67,257.11">
        <request index="0" response="000" foes="000" cont="0"/>
        <request index="1" response="000" foes="000" cont="0"/>
        <request index="2" response="000" foes="000" cont="0"/>
    </junction>
    <junction id="junc_roadSplit_JanShobaS" type="priority" x="454.43" y="164.23" incLanes="road_double_JanShobaS_toJunc_0 road_double_JanShobaS_toJunc_1" intLanes=":junc_roadSplit_JanShobaS_0_0 :junc_roadSplit_JanShobaS_0_1 :junc_roadSplit_JanShobaS_0_2" shape="448.24,159.97 454.64,160.30 455.72,163.32 456.84,164.19 457.99,165.06 458.87,166.25 459.23,168.08 449.63,168.08 449.22,165.06 448.86,164.02 448.51,162.98 448.27,161.71">
        <request index="0" response="000" foes="000" cont="0"/>
        <request index="1" response="000" foes="000" cont="0"/>
        <request index="2" response="000" foes="000" cont="0"/>
    </junction>
    <junction id="junc_roadSplit_SouthStrE" type="priority" x="501.42" y="211.94" incLanes="road_single_SouthStrE_toJunc_0" intLanes=":junc_roadSplit_SouthStrE_0_0 :junc_roadSplit_SouthStrE_0_1" shape="505.50,208.87 505.40,212.07 497.43,211.86 497.57,205.46 500.58,206.35 501.53,207.15 502.49,207.94 503.71,208.58">
        <request index="0" response="00" foes="00" cont="0"/>
        <request index="1" response="00" foes="00" cont="0"/>
    </junction>
    <junction id="junc_roadSplit_SouthStrW" type="priority" x="412.61" y="209.90" incLanes="road_single_SouthStrW_toJunc_0" intLanes=":junc_roadSplit_SouthStrW_0_0 :junc_roadSplit_SouthStrW_0_1" shape="416.60,209.99 416.47,216.38 413.45,215.49 411.55,213.90 410.32,213.28 408.53,212.99 408.62,209.79" fringe="outer">
        <request index="0" response="00" foes="00" cont="0"/>
        <request index="1" response="00" foes="00" cont="0"/>
    </junction>

    <junction id=":junc_JanShobaAndSouthStr_17_0" type="internal" x="457.30" y="213.02" incLanes=":junc_JanShobaAndSouthStr_7_0 road_double_SouthStrW_toJunc_0" intLanes=":junc_JanShobaAndSouthStr_1_0 :junc_JanShobaAndSouthStr_1_1 :junc_JanShobaAndSouthStr_3_0 :junc_JanShobaAndSouthStr_10_0 :junc_JanShobaAndSouthStr_10_1 :junc_JanShobaAndSouthStr_12_0 :junc_JanShobaAndSouthStr_13_0 :junc_JanShobaAndSouthStr_14_0 :junc_JanShobaAndSouthStr_15_0"/>
    <junction id=":junc_JanShobaAndSouthStr_18_0" type="internal" x="460.10" y="212.70" incLanes=":junc_JanShobaAndSouthStr_8_0 road_double_SouthStrW_toJunc_0" intLanes=":junc_JanShobaAndSouthStr_1_0 :junc_JanShobaAndSouthStr_1_1 :junc_JanShobaAndSouthStr_3_0 :junc_JanShobaAndSouthStr_10_0 :junc_JanShobaAndSouthStr_10_1 :junc_JanShobaAndSouthStr_12_0 :junc_JanShobaAndSouthStr_13_0 :junc_JanShobaAndSouthStr_14_0 :junc_JanShobaAndSouthStr_15_0"/>
    <junction id=":junc_JanShobaAndSouthStr_19_0" type="internal" x="458.71" y="209.21" incLanes=":junc_JanShobaAndSouthStr_16_0 road_double_SouthStrE_toJunc_0" intLanes=":junc_JanShobaAndSouthStr_1_0 :junc_JanShobaAndSouthStr_1_1 :junc_JanShobaAndSouthStr_3_0 :junc_JanShobaAndSouthStr_4_0 :junc_JanShobaAndSouthStr_5_0 :junc_JanShobaAndSouthStr_6_0 :junc_JanShobaAndSouthStr_10_0 :junc_JanShobaAndSouthStr_10_1 :junc_JanShobaAndSouthStr_12_0"/>

    <connection from="road_double_JanShobaN_toJunc" to="road_triple_JanShobaN_toJunc" fromLane="0" toLane="0" via=":junc_roadSplit_JanShobaN_0_0" dir="s" state="M"/>
    <connection from="road_double_JanShobaN_toJunc" to="road_triple_JanShobaN_toJunc" fromLane="1" toLane="1" via=":junc_roadSplit_JanShobaN_0_1" dir="s" state="M"/>
    <connection from="road_double_JanShobaN_toJunc" to="road_triple_JanShobaN_toJunc" fromLane="1" toLane="2" via=":junc_roadSplit_JanShobaN_0_2" dir="s" state="M"/>
    <connection from="road_double_JanShobaS_toJunc" to="road_triple_JanShobaS_toJunc" fromLane="0" toLane="0" via=":junc_roadSplit_JanShobaS_0_0" dir="s" state="M"/>
    <connection from="road_double_JanShobaS_toJunc" to="road_triple_JanShobaS_toJunc" fromLane="1" toLane="1" via=":junc_roadSplit_JanShobaS_0_1" dir="s" state="M"/>
    <connection from="road_double_JanShobaS_toJunc" to="road_triple_JanShobaS_toJunc" fromLane="1" toLane="2" via=":junc_roadSplit_JanShobaS_0_2" dir="s" state="M"/>
    <connection from="road_double_SouthStrE_toJunc" to="road_double_JanShobaS_fromJunc" fromLane="0" toLane="0" via=":junc_JanShobaAndSouthStr_4_0" tl="cluster_25290891_611769793" linkIndex="4" dir="l" state="o"/>
    <connection from="road_double_SouthStrE_toJunc" to="road_double_JanShobaS_fromJunc" fromLane="0" toLane="1" via=":junc_JanShobaAndSouthStr_5_0" tl="cluster_25290891_611769793" linkIndex="5" dir="l" state="o"/>
    <connection from="road_double_SouthStrE_toJunc" to="road_single_SouthStrW_fromJunc" fromLane="0" toLane="0" via=":junc_JanShobaAndSouthStr_6_0" tl="cluster_25290891_611769793" linkIndex="6" dir="s" state="o"/>
    <connection from="road_double_SouthStrE_toJunc" to="road_double_JanShobaN_fromJunc" fromLane="1" toLane="0" via=":junc_JanShobaAndSouthStr_7_0" tl="cluster_25290891_611769793" linkIndex="7" dir="r" state="o"/>
    <connection from="road_double_SouthStrE_toJunc" to="road_double_JanShobaN_fromJunc" fromLane="1" toLane="1" via=":junc_JanShobaAndSouthStr_8_0" tl="cluster_25290891_611769793" linkIndex="8" dir="r" state="o"/>
    <connection from="road_double_SouthStrW_toJunc" to="road_double_JanShobaN_fromJunc" fromLane="0" toLane="0" via=":junc_JanShobaAndSouthStr_13_0" tl="cluster_25290891_611769793" linkIndex="13" dir="l" state="o"/>
    <connection from="road_double_SouthStrW_toJunc" to="road_double_JanShobaN_fromJunc" fromLane="0" toLane="1" via=":junc_JanShobaAndSouthStr_14_0" tl="cluster_25290891_611769793" linkIndex="14" dir="l" state="o"/>
    <connection from="road_double_SouthStrW_toJunc" to="road_single_SouthStrE_fromJunc" fromLane="0" toLane="0" via=":junc_JanShobaAndSouthStr_15_0" tl="cluster_25290891_611769793" linkIndex="15" dir="s" state="o"/>
    <connection from="road_double_SouthStrW_toJunc" to="road_double_JanShobaS_fromJunc" fromLane="1" toLane="1" via=":junc_JanShobaAndSouthStr_16_0" tl="cluster_25290891_611769793" linkIndex="16" dir="r" state="o"/>
    <connection from="road_single_SouthStrE_toJunc" to="road_double_SouthStrE_toJunc" fromLane="0" toLane="0" via=":junc_roadSplit_SouthStrE_0_0" dir="s" state="M"/>
    <connection from="road_single_SouthStrE_toJunc" to="road_double_SouthStrE_toJunc" fromLane="0" toLane="1" via=":junc_roadSplit_SouthStrE_0_1" dir="s" state="M"/>
    <connection from="road_single_SouthStrW_toJunc" to="road_double_SouthStrW_toJunc" fromLane="0" toLane="0" via=":junc_roadSplit_SouthStrW_0_0" dir="s" state="M"/>
    <connection from="road_single_SouthStrW_toJunc" to="road_double_SouthStrW_toJunc" fromLane="0" toLane="1" via=":junc_roadSplit_SouthStrW_0_1" dir="s" state="M"/>
    <connection from="road_triple_JanShobaN_toJunc" to="road_single_SouthStrE_fromJunc" fromLane="0" toLane="0" via=":junc_JanShobaAndSouthStr_9_0" tl="cluster_25290891_611769793" linkIndex="9" dir="l" state="O"/>
    <connection from="road_triple_JanShobaN_toJunc" to="road_double_JanShobaS_fromJunc" fromLane="0" toLane="0" via=":junc_JanShobaAndSouthStr_10_0" tl="cluster_25290891_611769793" linkIndex="10" dir="s" state="O"/>
    <connection from="road_triple_JanShobaN_toJunc" to="road_double_JanShobaS_fromJunc" fromLane="1" toLane="1" via=":junc_JanShobaAndSouthStr_10_1" tl="cluster_25290891_611769793" linkIndex="11" dir="s" state="O"/>
    <connection from="road_triple_JanShobaN_toJunc" to="road_single_SouthStrW_fromJunc" fromLane="2" toLane="0" via=":junc_JanShobaAndSouthStr_12_0" tl="cluster_25290891_611769793" linkIndex="12" dir="r" state="o"/>
    <connection from="road_triple_JanShobaS_toJunc" to="road_single_SouthStrW_fromJunc" fromLane="0" toLane="0" via=":junc_JanShobaAndSouthStr_0_0" tl="cluster_25290891_611769793" linkIndex="0" dir="l" state="O"/>
    <connection from="road_triple_JanShobaS_toJunc" to="road_double_JanShobaN_fromJunc" fromLane="0" toLane="0" via=":junc_JanShobaAndSouthStr_1_0" tl="cluster_25290891_611769793" linkIndex="1" dir="s" state="O"/>
    <connection from="road_triple_JanShobaS_toJunc" to="road_double_JanShobaN_fromJunc" fromLane="1" toLane="1" via=":junc_JanShobaAndSouthStr_1_1" tl="cluster_25290891_611769793" linkIndex="2" dir="s" state="O"/>
    <connection from="road_triple_JanShobaS_toJunc" to="road_single_SouthStrE_fromJunc" fromLane="2" toLane="0" via=":junc_JanShobaAndSouthStr_3_0" tl="cluster_25290891_611769793" linkIndex="3" dir="r" state="o"/>

    <connection from=":junc_JanShobaAndSouthStr_0" to="road_single_SouthStrW_fromJunc" fromLane="0" toLane="0" dir="l" state="M"/>
    <connection from=":junc_JanShobaAndSouthStr_1" to="road_double_JanShobaN_fromJunc" fromLane="0" toLane="0" dir="s" state="M"/>
    <connection from=":junc_JanShobaAndSouthStr_1" to="road_double_JanShobaN_fromJunc" fromLane="1" toLane="1" dir="s" state="M"/>
    <connection from=":junc_JanShobaAndSouthStr_3" to="road_single_SouthStrE_fromJunc" fromLane="0" toLane="0" dir="r" state="M"/>
    <connection from=":junc_JanShobaAndSouthStr_4" to="road_double_JanShobaS_fromJunc" fromLane="0" toLane="0" dir="l" state="M"/>
    <connection from=":junc_JanShobaAndSouthStr_5" to="road_double_JanShobaS_fromJunc" fromLane="0" toLane="1" dir="l" state="M"/>
    <connection from=":junc_JanShobaAndSouthStr_6" to="road_single_SouthStrW_fromJunc" fromLane="0" toLane="0" dir="s" state="M"/>
    <connection from=":junc_JanShobaAndSouthStr_7" to="road_double_JanShobaN_fromJunc" fromLane="0" toLane="0" via=":junc_JanShobaAndSouthStr_17_0" dir="r" state="m"/>
    <connection from=":junc_JanShobaAndSouthStr_17" to="road_double_JanShobaN_fromJunc" fromLane="0" toLane="0" dir="r" state="M"/>
    <connection from=":junc_JanShobaAndSouthStr_8" to="road_double_JanShobaN_fromJunc" fromLane="0" toLane="1" via=":junc_JanShobaAndSouthStr_18_0" dir="r" state="m"/>
    <connection from=":junc_JanShobaAndSouthStr_18" to="road_double_JanShobaN_fromJunc" fromLane="0" toLane="1" dir="r" state="M"/>
    <connection from=":junc_JanShobaAndSouthStr_9" to="road_single_SouthStrE_fromJunc" fromLane="0" toLane="0" dir="l" state="M"/>
    <connection from=":junc_JanShobaAndSouthStr_10" to="road_double_JanShobaS_fromJunc" fromLane="0" toLane="0" dir="s" state="M"/>
    <connection from=":junc_JanShobaAndSouthStr_10" to="road_double_JanShobaS_fromJunc" fromLane="1" toLane="1" dir="s" state="M"/>
    <connection from=":junc_JanShobaAndSouthStr_12" to="road_single_SouthStrW_fromJunc" fromLane="0" toLane="0" dir="r" state="M"/>
    <connection from=":junc_JanShobaAndSouthStr_13" to="road_double_JanShobaN_fromJunc" fromLane="0" toLane="0" dir="l" state="M"/>
    <connection from=":junc_JanShobaAndSouthStr_14" to="road_double_JanShobaN_fromJunc" fromLane="0" toLane="1" dir="l" state="M"/>
    <connection from=":junc_JanShobaAndSouthStr_15" to="road_single_SouthStrE_fromJunc" fromLane="0" toLane="0" dir="s" state="M"/>
    <connection from=":junc_JanShobaAndSouthStr_16" to="road_double_JanShobaS_fromJunc" fromLane="0" toLane="1" via=":junc_JanShobaAndSouthStr_19_0" dir="r" state="m"/>
    <connection from=":junc_JanShobaAndSouthStr_19" to="road_double_JanShobaS_fromJunc" fromLane="0" toLane="1" dir="r" state="M"/>
    <connection from=":junc_roadSplit_JanShobaN_0" to="road_triple_JanShobaN_toJunc" fromLane="0" toLane="0" dir="s" state="M"/>
    <connection from=":junc_roadSplit_JanShobaN_0" to="road_triple_JanShobaN_toJunc" fromLane="1" toLane="1" dir="s" state="M"/>